REMARK  8 active torsions:
REMARK  status: ('A' for Active; 'I' for Inactive)
REMARK    1  A    between atoms: N5_5  and  C6_6 
REMARK    2  A    between atoms: C6_6  and  C7_7 
REMARK    3  A    between atoms: C7_7  and  O8_8 
REMARK    4  A    between atoms: O8_8  and  C9_9 
REMARK    5  A    between atoms: C11_11  and  O12_12 
REMARK    6  A    between atoms: O12_12  and  C13_13 
REMARK    7  A    between atoms: C20_20  and  N21_21 
REMARK    8  A    between atoms: N21_21  and  C22_22 
ROOT
HETATM    1  C1  H8H A 534      27.161  14.919  60.117  1.00 54.59     0.285 C 
HETATM    2  N2  H8H A 534      27.123  16.370  59.841  1.00 52.33     0.143 N 
HETATM    3  C3  H8H A 534      26.423  16.591  58.548  1.00 49.10     0.285 C 
HETATM    4  C4  H8H A 534      26.374  18.110  58.272  1.00 46.14     0.286 C 
HETATM    5  N5  H8H A 534      25.709  18.843  59.376  1.00 43.54     0.144 N 
HETATM    6  C37 H8H A 534      26.344  18.543  60.684  1.00 46.05     0.286 C 
HETATM    7  C38 H8H A 534      26.387  17.028  60.957  1.00 48.96     0.285 C 
ENDROOT
BRANCH   5   8
HETATM    8  C6  H8H A 534      26.019  20.240  59.119  1.00 38.29     0.283 C 
BRANCH   8   9
HETATM    9  C7  H8H A 534      24.755  21.044  58.887  1.00 33.73     0.184 C 
BRANCH   9  10
HETATM   10  O8  H8H A 534      23.639  20.203  59.086  1.00 32.50    -0.329 OA
BRANCH  10  11
HETATM   11  C9  H8H A 534      22.516  20.886  58.749  1.00 32.40     0.098 A 
HETATM   12  C10 H8H A 534      21.305  20.187  58.736  1.00 30.77     0.049 A 
HETATM   13  C11 H8H A 534      20.126  20.825  58.389  1.00 31.95     0.100 A 
HETATM   14  C19 H8H A 534      20.148  22.202  58.076  1.00 32.16     0.074 A 
HETATM   15  C20 H8H A 534      18.968  22.945  57.735  1.00 32.02     0.146 A 
HETATM   16  C35 H8H A 534      21.385  22.906  58.107  1.00 31.02     0.090 A 
HETATM   17  N32 H8H A 534      19.101  24.256  57.494  1.00 28.89    -0.207 NA
HETATM   18  C33 H8H A 534      20.260  24.847  57.528  1.00 31.30     0.200 A 
HETATM   19  N34 H8H A 534      21.381  24.210  57.821  1.00 31.90    -0.224 NA
HETATM   20  C36 H8H A 534      22.564  22.241  58.441  1.00 31.69     0.044 A 
BRANCH  13  21
HETATM   21  O12 H8H A 534      18.923  20.176  58.346  1.00 34.26    -0.333 OA
BRANCH  21  22
HETATM   22  C13 H8H A 534      18.893  18.997  59.145  1.00 35.88     0.126 C 
HETATM   23  C14 H8H A 534      17.671  19.153  60.050  1.00 38.51     0.062 C 
HETATM   24  C15 H8H A 534      17.215  17.825  60.671  1.00 39.91     0.145 C 
HETATM   25  O16 H8H A 534      17.182  16.762  59.711  1.00 39.83    -0.354 OA
HETATM   26  C17 H8H A 534      18.372  16.551  58.955  1.00 40.90     0.145 C 
HETATM   27  C18 H8H A 534      18.704  17.837  58.173  1.00 38.52     0.062 C 
ENDBRANCH  21  22
ENDBRANCH  13  21
BRANCH  15  28
HETATM   28  N21 H8H A 534      17.711  22.330  57.689  1.00 30.70    -0.336 N 
HETATM   29  H1  H8H A 534      17.638  21.300  57.969  1.00 36.03     0.168 HD
BRANCH  28  30
HETATM   30  C22 H8H A 534      16.527  23.007  57.288  1.00 30.43     0.093 A 
HETATM   31  C23 H8H A 534      16.474  23.709  56.074  1.00 32.61     0.135 A 
HETATM   32  O24 H8H A 534      17.397  23.943  55.071  1.00 31.94    -0.298 OA
HETATM   33  C27 H8H A 534      15.296  24.347  55.685  1.00 31.23     0.121 A 
HETATM   34  C25 H8H A 534      16.972  25.147  54.424  1.00 27.44     0.304 C 
HETATM   35  O26 H8H A 534      15.554  24.965  54.483  1.00 30.58    -0.299 OA
HETATM   36  C28 H8H A 534      14.176  24.308  56.499  1.00 30.92     0.027 A 
HETATM   37  C29 H8H A 534      14.207  23.604  57.694  1.00 30.93     0.015 A 
HETATM   38  C30 H8H A 534      15.364  22.949  58.083  1.00 31.38     0.075 A 
HETATM   39 CL3  H8H A 534      15.356  22.094  59.607  1.00 33.83    -0.081 Cl
ENDBRANCH  28  30
ENDBRANCH  15  28
ENDBRANCH  10  11
ENDBRANCH   9  10
ENDBRANCH   8   9
ENDBRANCH   5   8
TORSDOF 8
