REMARK  1 active torsions:
REMARK  status: ('A' for Active; 'I' for Inactive)
REMARK    1  A    between atoms: C6_7  and  C3_10 
ROOT
ATOM      1  C7  YEX A1278       1.257  38.305  12.527  1.00  0.00     0.014 A 
ATOM      2  C8  YEX A1278       2.423  38.914  12.112  1.00  0.00     0.015 A 
ATOM      3  C19 YEX A1278       1.408  36.787  10.724  1.00  0.00     0.044 A 
ATOM      4  C6  YEX A1278       0.732  37.226  11.846  1.00  0.00    -0.007 A 
ATOM      5  C9  YEX A1278       3.108  38.476  10.986  1.00  0.00    -0.003 A 
ATOM      6  C18 YEX A1278       2.576  37.397  10.289  1.00  0.00     0.057 A 
ATOM      7  C11 YEX A1278       4.948  38.615   9.471  1.00  0.00     0.058 A 
ATOM      8  C10 YEX A1278       4.291  39.103  10.576  1.00  0.00    -0.046 A 
ATOM      9  C12 YEX A1278       4.394  37.522   8.833  1.00  0.00     0.131 A 
ATOM     10  C15 YEX A1278       2.961  35.873   8.344  1.00  0.00     0.347 A 
ATOM     11  C20 YEX A1278       4.879  40.292  11.263  1.00  0.00     0.049 C 
ATOM     12  N13 YEX A1278       4.933  36.900   7.766  1.00  0.00    -0.281 N 
ATOM     13  H13 YEX A1278       5.796  37.131   7.273  1.00  0.00     0.188 HD
ATOM     14  N14 YEX A1278       4.012  35.838   7.485  1.00  0.00    -0.249 N 
ATOM     15  N17 YEX A1278       3.237  36.952   9.206  1.00  0.00    -0.246 N 
ATOM     16  O16 YEX A1278       1.988  35.133   8.390  1.00  0.00    -0.245 OA
ATOM     17  H   YEX A1278       4.126  35.174   6.767  1.00  0.00     0.192 HD
ENDROOT
BRANCH   4  18
ATOM     18  C3  YEX A1278      -0.516  36.590  12.280  1.00  0.00     0.042 A 
ATOM     19  C2  YEX A1278      -1.416  36.989  13.243  1.00  0.00     0.031 A 
ATOM     20  C1  YEX A1278      -2.490  36.068  13.250  1.00  0.00     0.019 A 
ATOM     21  C5  YEX A1278      -2.228  35.124  12.300  1.00  0.00     0.088 A 
ATOM     22  N4  YEX A1278      -1.036  35.450  11.724  1.00  0.00    -0.365 N 
ATOM     23  H   YEX A1278      -0.606  34.935  11.004  1.00  0.00     0.165 HD
ENDBRANCH   4  18
TORSDOF 1
