REMARK  4 active torsions:
REMARK  status: ('A' for Active; 'I' for Inactive)
REMARK    1  A    between atoms: C15_7  and  C16_8 
REMARK       I    between atoms: C16_8  and  N18_9 
REMARK    2  A    between atoms: C08_19  and  O07_20 
REMARK    3  A    between atoms: O07_20  and  C06_21 
REMARK    4  A    between atoms: C06_21  and  C05_22 
ROOT
ATOM      1 CL11 552 A 901      -4.810  11.378  34.503  1.00  0.00    -0.062 Cl
ATOM      2  C10 552 A 901      -5.462  11.749  32.934  1.00  0.00     0.132 A 
ATOM      3  N09 552 A 901      -6.801  11.535  32.803  1.00  0.00    -0.321 N 
ATOM      4  H09 552 A 901      -7.365  11.210  33.588  1.00  0.00     0.169 HD
ATOM      5  C12 552 A 901      -4.687  12.182  31.942  1.00  0.00     0.077 A 
ATOM      6  N23 552 A 901      -5.231  12.451  30.740  1.00  0.00    -0.290 N 
ATOM      7  C15 552 A 901      -4.293  12.919  29.759  1.00  0.00     0.208 C 
ATOM      8  C14 552 A 901      -2.998  13.093  30.555  1.00  0.00     0.010 C 
ATOM      9  C13 552 A 901      -3.229  12.459  31.923  1.00  0.00     0.031 C 
ATOM     10  C24 552 A 901      -6.548  12.260  30.468  1.00  0.00     0.300 A 
ATOM     11  O25 552 A 901      -7.114  12.461  29.417  1.00  0.00    -0.263 OA
ATOM     12  C08 552 A 901      -7.328  11.759  31.647  1.00  0.00     0.214 A 
ENDROOT
BRANCH  12  13
ATOM     13  O07 552 A 901      -8.638  11.627  31.282  1.00  0.00    -0.327 OA
BRANCH  13  14
ATOM     14  C06 552 A 901      -9.534  11.523  32.377  1.00  0.00     0.216 C 
BRANCH  14  15
ATOM     15  C05 552 A 901      -9.939  12.831  32.929  1.00  0.00    -0.034 A 
ATOM     16  C04 552 A 901      -9.996  13.952  32.143  1.00  0.00     0.012 A 
ATOM     17  C03 552 A 901     -10.384  15.153  32.686  1.00  0.00     0.043 A 
ATOM     18  C02 552 A 901     -10.717  15.216  34.017  1.00  0.00     0.116 A 
ATOM     19  C27 552 A 901     -10.672  14.095  34.799  1.00  0.00     0.043 A 
ATOM     20  F01 552 A 901     -11.102  16.403  34.516  1.00  0.00    -0.206 F 
ATOM     21  C26 552 A 901     -10.275  12.899  34.255  1.00  0.00     0.012 A 
ENDBRANCH  14  15
ENDBRANCH  13  14
ENDBRANCH  12  13
BRANCH   7  22
ATOM     22  C16 552 A 901      -4.197  11.814  28.749  1.00  0.00     0.246 C 
ATOM     23  N18 552 A 901      -3.761  12.216  27.524  1.00  0.00    -0.350 N 
ATOM     24  C22 552 A 901      -3.657  11.279  26.454  1.00  0.00     0.126 C 
ATOM     25  C19 552 A 901      -3.198  13.500  27.220  1.00  0.00     0.126 C 
ATOM     26  C21 552 A 901      -3.179  12.102  25.278  1.00  0.00     0.021 C 
ATOM     27  C20 552 A 901      -2.481  13.293  25.912  1.00  0.00     0.021 C 
ATOM     28  O17 552 A 901      -4.458  10.669  29.004  1.00  0.00    -0.271 OA
ENDBRANCH   7  22
TORSDOF 4
