REMARK  8 active torsions:
REMARK  status: ('A' for Active; 'I' for Inactive)
REMARK    1  A    between atoms: O02_2  and  N03_3 
REMARK       I    between atoms: N03_3  and  C04_5 
REMARK    2  A    between atoms: C04_5  and  C06_7 
REMARK    3  A    between atoms: N08_9  and  C31_34 
REMARK    4  A    between atoms: C11_13  and  N17_20 
REMARK    5  A    between atoms: N17_20  and  C18_21 
REMARK    6  A    between atoms: C21_24  and  C24_27 
REMARK    7  A    between atoms: C24_27  and  C25_28 
REMARK    8  A    between atoms: C25_28  and  N26_29 
ROOT
ATOM      1  C06 8C5 A 923       7.699  23.881   5.284  1.00  0.00     0.315 C 
ATOM      2  C07 8C5 A 923       6.776  24.806   4.892  1.00  0.00     0.147 C 
ATOM      3  N08 8C5 A 923       6.482  25.981   5.564  1.00  0.00    -0.360 N 
ATOM      4  C09 8C5 A 923       6.923  26.168   6.898  1.00  0.00     0.135 A 
ATOM      5  N10 8C5 A 923       6.584  27.281   7.617  1.00  0.00    -0.176 N 
ATOM      6  H10 8C5 A 923       6.003  28.017   7.216  1.00  0.00     0.186 HD
ATOM      7  C11 8C5 A 923       7.081  27.367   8.957  1.00  0.00     0.684 A 
ATOM      8  N12 8C5 A 923       7.878  26.428   9.512  1.00  0.00    -0.201 N 
ATOM      9  H12 8C5 A 923       8.231  26.506  10.466  1.00  0.00     0.183 HD
ATOM     10  C13 8C5 A 923       8.170  25.391   8.723  1.00  0.00     0.125 A 
ATOM     11  C14 8C5 A 923       7.744  25.165   7.420  1.00  0.00     0.071 A 
ATOM     12  C15 8C5 A 923       8.150  23.951   6.679  1.00  0.00     0.179 C 
ATOM     13  O16 8C5 A 923       8.868  23.095   7.235  1.00  0.00    -0.291 OA
ENDROOT
BRANCH   7  14
ATOM     14  N17 8C5 A 923       6.664  28.562   9.558  1.00  0.00    -0.192 N 
ATOM     15  H   8C5 A 923       7.144  28.776  10.391  1.00  0.00     0.184 HD
BRANCH  14  16
ATOM     16  C18 8C5 A 923       5.636  29.571   9.182  1.00  0.00     0.049 A 
ATOM     17  C19 8C5 A 923       5.371  29.953   7.866  1.00  0.00     0.030 A 
ATOM     18  C20 8C5 A 923       4.353  30.881   7.552  1.00  0.00     0.009 A 
ATOM     19  C21 8C5 A 923       3.553  31.506   8.499  1.00  0.00    -0.057 A 
ATOM     20  C22 8C5 A 923       3.815  31.103   9.817  1.00  0.00     0.009 A 
ATOM     21  C23 8C5 A 923       4.814  30.195  10.152  1.00  0.00     0.030 A 
BRANCH  19  22
ATOM     22  C24 8C5 A 923       2.345  32.368   8.122  1.00  0.00     0.066 C 
BRANCH  22  23
ATOM     23  C25 8C5 A 923       0.996  31.591   8.342  1.00  0.00     0.239 C 
BRANCH  23  24
ATOM     24  N26 8C5 A 923      -0.252  32.286   7.852  1.00  0.00    -0.071 N 
ATOM     25  C27 8C5 A 923      -0.041  33.112   6.634  1.00  0.00     0.235 C 
ATOM     26  C28 8C5 A 923      -1.450  33.585   6.231  1.00  0.00     0.029 C 
ATOM     27  C29 8C5 A 923      -2.392  32.562   6.839  1.00  0.00     0.029 C 
ATOM     28  C30 8C5 A 923      -1.496  31.532   7.544  1.00  0.00     0.235 C 
ATOM     29  H   8C5 A 923      -0.415  32.795   8.721  1.00  0.00     0.279 HD
ENDBRANCH  23  24
ENDBRANCH  22  23
ENDBRANCH  19  22
ENDBRANCH  14  16
ENDBRANCH   7  14
BRANCH   3  30
ATOM     30  C31 8C5 A 923       5.823  27.163   4.802  1.00  0.00     0.086 C 
ATOM     31  C32 8C5 A 923       6.776  27.811   3.783  1.00  0.00     0.025 C 
ATOM     32  C33 8C5 A 923       6.158  29.052   3.128  1.00  0.00     0.002 C 
ATOM     33  C34 8C5 A 923       4.964  28.718   2.291  1.00  0.00     0.000 C 
ATOM     34  C35 8C5 A 923       3.971  27.982   3.161  1.00  0.00     0.002 C 
ATOM     35  C36 8C5 A 923       4.533  26.831   4.059  1.00  0.00     0.025 C 
ENDBRANCH   3  30
BRANCH   1  36
ATOM     36  C04 8C5 A 923       8.140  22.788   4.302  1.00  0.00     0.146 C 
ATOM     37  N03 8C5 A 923       8.930  21.714   4.803  1.00  0.00    -0.248 N 
ATOM     38  H03 8C5 A 923       9.328  21.800   5.738  1.00  0.00     0.196 HD
ATOM     39  O05 8C5 A 923       7.577  22.795   3.211  1.00  0.00    -0.289 OA
BRANCH  37  40
ATOM     40  O02 8C5 A 923       9.184  20.558   4.083  1.00  0.00    -0.283 OA
ATOM     41  C01 8C5 A 923      10.575  20.278   3.829  1.00  0.00     0.237 C 
ENDBRANCH  37  40
ENDBRANCH   1  36
TORSDOF 8
