REMARK  3 active torsions:
REMARK  status: ('A' for Active; 'I' for Inactive)
REMARK    1  A    between atoms: C_1  and  N_13 
REMARK       I    between atoms: N_6  and  C_8 
REMARK    2  A    between atoms: C_8  and  C_9 
REMARK    3  A    between atoms: N_13  and  C_15 
ROOT
HETATM    1  C   MI1 A1125       5.322  15.524   6.077  1.00  0.00     0.226 C 
HETATM    2  C   MI1 A1125       6.430  15.309   5.168  1.00  0.00     0.068 C 
HETATM    3  N   MI1 A1125       7.299  15.078   4.438  1.00  0.00    -0.197 NA
ENDROOT
BRANCH   1   4
HETATM    4  C   MI1 A1125       4.144  16.152   5.379  1.00  0.00     0.232 C 
HETATM    5  N   MI1 A1125       2.987  16.243   6.113  1.00  0.00    -0.349 N 
HETATM    6  C   MI1 A1125       1.790  16.812   5.512  1.00  0.00     0.151 C 
HETATM    7  C   MI1 A1125       2.808  15.694   7.429  1.00  0.00     0.126 C 
HETATM    8  C   MI1 A1125       0.726  15.735   5.410  1.00  0.00     0.107 C 
HETATM    9  C   MI1 A1125       0.423  15.179   6.808  1.00  0.00     0.007 C 
HETATM   10  C   MI1 A1125       1.700  14.662   7.446  1.00  0.00     0.026 C 
HETATM   11  C   MI1 A1125      -0.205  16.206   7.750  1.00  0.00     0.012 C 
HETATM   12  O   MI1 A1125       4.221  16.572   4.238  1.00  0.00    -0.272 OA
BRANCH   8  13
HETATM   13  N   MI1 A1125      -0.565  16.235   4.924  1.00  0.00    -0.364 N 
HETATM   14  C   MI1 A1125      -0.747  17.627   4.602  1.00  0.00     0.152 C 
BRANCH  13  15
HETATM   15  C   MI1 A1125      -1.394  15.375   4.171  1.00  0.00     0.118 A 
HETATM   16  N   MI1 A1125      -2.448  15.953   3.569  1.00  0.00    -0.338 N 
HETATM   17  C   MI1 A1125      -3.298  15.183   2.883  1.00  0.00     0.183 A 
ATOM     18  HN  MI1 A1125      -2.596  16.960   3.635  1.00  0.00     0.168 HD
HETATM   19  N   MI1 A1125      -3.295  13.865   2.689  1.00  0.00    -0.338 N 
HETATM   20  C   MI1 A1125      -2.240  13.338   3.307  1.00  0.00     0.120 A 
ATOM     21  HN  MI1 A1125      -3.989  13.344   2.153  1.00  0.00     0.168 HD
HETATM   22  C   MI1 A1125      -1.269  13.988   4.041  1.00  0.00     0.053 A 
HETATM   23  N   MI1 A1125      -1.966  12.007   3.291  1.00  0.00    -0.351 N 
HETATM   24  C   MI1 A1125      -0.375  12.958   4.474  1.00  0.00     0.036 A 
HETATM   25  C   MI1 A1125      -0.825  11.758   3.987  1.00  0.00     0.091 A 
HETATM   26  H   MI1 A1125      -2.513  11.323   2.841  1.00  0.00     0.166 HD
ENDBRANCH  13  15
ENDBRANCH   8  13
ENDBRANCH   1   4
TORSDOF 3
