REMARK  3 active torsions:
REMARK  status: ('A' for Active; 'I' for Inactive)
REMARK    1  A    between atoms: C_6  and  C_7 
REMARK    2  A    between atoms: C_15  and  C_16 
REMARK    3  A    between atoms: C_18  and  C_21 
ROOT
HETATM    1  C   IZA A1183      -4.691  23.916 -31.215  1.00  0.00     0.072 A 
HETATM    2  C   IZA A1183      -4.213  24.932 -30.415  1.00  0.00     0.072 A 
HETATM    3  N   IZA A1183      -3.451  24.415 -29.386  1.00  0.00    -0.343 N 
HETATM    4  C   IZA A1183      -3.462  23.111 -29.552  1.00  0.00     0.090 A 
HETATM    5  N   IZA A1183      -4.207  22.758 -30.653  1.00  0.00    -0.343 N 
ATOM      6  HN  IZA A1183      -4.371  21.810 -30.991  1.00  0.00     0.167 HD
HETATM    7  H   IZA A1183      -2.994  24.919 -28.675  1.00  0.00     0.167 HD
ENDROOT
BRANCH   4   8
HETATM    8  C   IZA A1183      -2.835  22.090 -28.690  1.00  0.00     0.007 C 
HETATM    9  C   IZA A1183      -2.131  21.012 -29.462  1.00  0.00     0.022 C 
HETATM   10  C   IZA A1183      -4.004  21.455 -27.948  1.00  0.00     0.022 C 
HETATM   11  C   IZA A1183      -1.949  22.691 -27.614  1.00  0.00     0.022 C 
ENDBRANCH   4   8
BRANCH   2  12
HETATM   12  C   IZA A1183      -4.560  26.237 -30.744  1.00  0.00     0.004 A 
HETATM   13  C   IZA A1183      -5.355  26.502 -31.846  1.00  0.00    -0.004 A 
HETATM   14  C   IZA A1183      -5.807  25.451 -32.637  1.00  0.00     0.056 A 
HETATM   15  C   IZA A1183      -5.663  27.838 -32.088  1.00  0.00     0.055 A 
HETATM   16  C   IZA A1183      -6.656  25.647 -33.832  1.00  0.00     0.257 A 
HETATM   17  C   IZA A1183      -5.475  24.144 -32.324  1.00  0.00     0.011 A 
HETATM   18  O   IZA A1183      -6.994  26.764 -34.200  1.00  0.00    -0.267 OA
HETATM   19  N   IZA A1183      -7.048  24.517 -34.514  1.00  0.00    -0.333 N 
HETATM   20  C   IZA A1183      -6.689  23.257 -34.162  1.00  0.00     0.092 A 
HETATM   21  H   IZA A1183      -7.623  24.630 -35.305  1.00  0.00     0.168 HD
HETATM   22  C   IZA A1183      -5.926  23.026 -33.105  1.00  0.00     0.032 A 
HETATM   23  C   IZA A1183      -5.184  28.845 -31.276  1.00  0.00     0.117 A 
HETATM   24  F   IZA A1183      -5.503  30.143 -31.525  1.00  0.00    -0.206 F 
HETATM   25  C   IZA A1183      -4.399  28.554 -30.197  1.00  0.00     0.043 A 
HETATM   26  C   IZA A1183      -4.081  27.244 -29.932  1.00  0.00     0.018 A 
ENDBRANCH   2  12
TORSDOF 3
