REMARK  11 active torsions:
REMARK  status: ('A' for Active; 'I' for Inactive)
REMARK    1  A    between atoms: O1_1  and  C2_2 
REMARK    2  A    between atoms: C2_2  and  C3_3 
REMARK    3  A    between atoms: C3_3  and  O4_4 
REMARK    4  A    between atoms: O4_4  and  C5_5 
REMARK    5  A    between atoms: C5_5  and  C6_6 
REMARK    6  A    between atoms: C6_6  and  N7_7 
REMARK    7  A    between atoms: C14_16  and  N15_17 
REMARK    8  A    between atoms: N15_17  and  C16_18 
REMARK    9  A    between atoms: C19_22  and  O20_23 
REMARK   10  A    between atoms: O20_23  and  C21_24 
REMARK   11  A    between atoms: C25_28  and  C27_30 
ROOT
ATOM      1  N15 03Q A   1      16.633  14.129  27.253  1.00  0.00    -0.339 N 
ATOM      2  H   03Q A   1      15.766  13.690  27.411  1.00  0.00     0.167 HD
ENDROOT
BRANCH   1   3
ATOM      3  C14 03Q A   1      17.778  13.583  27.824  1.00  0.00     0.136 A 
ATOM      4  N13 03Q A   1      18.965  14.211  27.729  1.00  0.00    -0.337 N 
ATOM      5  C12 03Q A   1      20.073  13.702  28.276  1.00  0.00     0.182 A 
ATOM      6  H13 03Q A   1      19.020  15.097  27.227  1.00  0.00     0.168 HD
ATOM      7  N11 03Q A   1      20.060  12.566  28.947  1.00  0.00    -0.350 N 
ATOM      8  C10 03Q A   1      18.915  11.871  29.091  1.00  0.00     0.065 A 
ATOM      9  H11 03Q A   1      20.923  12.212  29.360  1.00  0.00     0.166 HD
ATOM     10  C9  03Q A   1      18.570  10.621  29.744  1.00  0.00     0.049 A 
ATOM     11  C34 03Q A   1      17.710  12.358  28.525  1.00  0.00     0.106 A 
ATOM     12  C8  03Q A   1      17.248  10.426  29.552  1.00  0.00     0.094 A 
ATOM     13  N7  03Q A   1      16.711  11.455  28.835  1.00  0.00    -0.350 N 
BRANCH  13  14
ATOM     14  C6  03Q A   1      15.287  11.504  28.425  1.00  0.00     0.155 C 
BRANCH  14  15
ATOM     15  C5  03Q A   1      14.386  12.236  29.415  1.00  0.00     0.187 C 
BRANCH  15  16
ATOM     16  O4  03Q A   1      14.282  13.578  28.949  1.00  0.00    -0.387 OA
BRANCH  16  17
ATOM     17  C3  03Q A   1      13.642  14.488  29.843  1.00  0.00     0.193 C 
BRANCH  17  18
ATOM     18  C2  03Q A   1      12.701  15.432  29.083  1.00  0.00     0.190 C 
BRANCH  18  19
ATOM     19  O1  03Q A   1      12.904  15.416  27.666  1.00  0.00    -0.399 OA
ATOM     20  H   03Q A   1      12.283  16.030  27.243  1.00  0.00     0.209 HD
ENDBRANCH  18  19
ENDBRANCH  17  18
ENDBRANCH  16  17
ENDBRANCH  15  16
ENDBRANCH  14  15
ENDBRANCH  13  14
ENDBRANCH   1   3
BRANCH   1  21
ATOM     21  C16 03Q A   1      16.674  15.283  26.461  1.00  0.00     0.051 A 
ATOM     22  C33 03Q A   1      17.530  15.411  25.373  1.00  0.00     0.059 A 
ATOM     23  C31 03Q A   1      17.491  16.602  24.657  1.00  0.00     0.087 A 
ATOM     24  C19 03Q A   1      16.613  17.627  25.038  1.00  0.00     0.170 A 
ATOM     25 CL32 03Q A   1      18.530  16.801  23.292  1.00  0.00    -0.080 Cl
ATOM     26  N18 03Q A   1      15.816  17.460  26.065  1.00  0.00    -0.343 N 
ATOM     27  C17 03Q A   1      15.830  16.347  26.775  1.00  0.00     0.119 A 
ATOM     28  H18 03Q A   1      15.170  18.207  26.322  1.00  0.00     0.167 HD
BRANCH  24  29
ATOM     29  O20 03Q A   1      16.547  18.810  24.362  1.00  0.00    -0.292 OA
BRANCH  29  30
ATOM     30  C21 03Q A   1      17.383  19.853  24.657  1.00  0.00     0.078 A 
ATOM     31  C26 03Q A   1      17.194  21.064  24.014  1.00  0.00     0.053 A 
ATOM     32  C25 03Q A   1      18.032  22.139  24.278  1.00  0.00     0.050 A 
ATOM     33  C24 03Q A   1      19.083  22.033  25.177  1.00  0.00     0.016 A 
ATOM     34  C23 03Q A   1      19.283  20.819  25.810  1.00  0.00     0.004 A 
ATOM     35  C22 03Q A   1      18.444  19.738  25.553  1.00  0.00     0.037 A 
BRANCH  32  36
ATOM     36  C27 03Q A   1      17.817  23.452  23.592  1.00  0.00     0.417 C 
ATOM     37  F28 03Q A   1      16.867  23.402  22.593  1.00  0.00    -0.166 F 
ATOM     38  F29 03Q A   1      19.036  23.876  23.071  1.00  0.00    -0.166 F 
ATOM     39  F30 03Q A   1      17.330  24.362  24.497  1.00  0.00    -0.166 F 
ENDBRANCH  32  36
ENDBRANCH  29  30
ENDBRANCH  24  29
ENDBRANCH   1  21
TORSDOF 11
