REMARK  8 active torsions:
REMARK  status: ('A' for Active; 'I' for Inactive)
REMARK       I    between atoms: C21_2  and  N5_4 
REMARK    1  A    between atoms: N5_4  and  C17_5 
REMARK    2  A    between atoms: C15_10  and  C3_11 
REMARK    3  A    between atoms: C6_20  and  C23_21 
REMARK    4  A    between atoms: C24_22  and  N7_23 
REMARK    5  A    between atoms: N3_29  and  C7_30 
REMARK    6  A    between atoms: C10_35  and  C13_36 
REMARK    7  A    between atoms: C13_36  and  N4_37 
REMARK       I    between atoms: N4_37  and  C14_38 
REMARK    8  A    between atoms: C14_38  and  C28_40 
ROOT
ATOM      1  C3  0R4 A 501      38.069  44.353  20.265  1.00  0.00     0.044 A 
ATOM      2  C2  0R4 A 501      39.283  45.068  20.248  1.00  0.00     0.033 A 
ATOM      3  C1  0R4 A 501      39.694  45.784  19.107  1.00  0.00     0.036 A 
ATOM      4  N1  0R4 A 501      37.283  44.338  19.174  1.00  0.00    -0.339 N 
ATOM      5  H1  0R4 A 501      36.410  43.810  19.193  1.00  0.00     0.167 HD
ATOM      6  C5  0R4 A 501      37.628  45.011  18.049  1.00  0.00     0.141 A 
ATOM      7  C4  0R4 A 501      38.878  45.779  17.970  1.00  0.00     0.079 A 
ATOM      8  N2  0R4 A 501      38.927  46.314  16.715  1.00  0.00    -0.338 N 
ATOM      9  H2  0R4 A 501      39.678  46.903  16.356  1.00  0.00     0.167 HD
ATOM     10  C6  0R4 A 501      37.816  45.940  16.013  1.00  0.00     0.128 A 
ATOM     11  N3  0R4 A 501      37.101  45.146  16.841  1.00  0.00    -0.281 N 
ENDROOT
BRANCH  11  12
ATOM     12  C7  0R4 A 501      35.878  44.616  16.613  1.00  0.00     0.043 A 
ATOM     13  C8  0R4 A 501      34.828  45.428  16.136  1.00  0.00     0.031 A 
ATOM     14  C9  0R4 A 501      33.531  44.958  15.929  1.00  0.00     0.011 A 
ATOM     15  C10 0R4 A 501      33.221  43.648  16.248  1.00  0.00    -0.040 A 
ATOM     16  C11 0R4 A 501      34.225  42.806  16.736  1.00  0.00     0.011 A 
ATOM     17  C12 0R4 A 501      35.515  43.287  16.920  1.00  0.00     0.031 A 
BRANCH  15  18
ATOM     18  C13 0R4 A 501      31.808  43.145  16.025  1.00  0.00     0.161 C 
BRANCH  18  19
ATOM     19  N4  0R4 A 501      31.414  42.284  17.125  1.00  0.00    -0.353 N 
ATOM     20  C14 0R4 A 501      30.425  41.427  16.921  1.00  0.00     0.252 C 
ATOM     21  O2  0R4 A 501      29.670  41.577  15.977  1.00  0.00    -0.268 OA
ATOM     22  H   0R4 A 501      31.868  42.335  17.997  1.00  0.00     0.163 HD
BRANCH  20  23
ATOM     23  C28 0R4 A 501      30.205  40.253  17.816  1.00  0.00     0.035 A 
ATOM     24  C29 0R4 A 501      28.887  39.887  18.106  1.00  0.00     0.017 A 
ATOM     25  C30 0R4 A 501      28.625  38.796  18.930  1.00  0.00     0.004 A 
ATOM     26  C31 0R4 A 501      29.678  38.052  19.445  1.00  0.00     0.042 A 
ATOM     27  C32 0R4 A 501      30.988  38.408  19.150  1.00  0.00     0.117 A 
ATOM     28  C33 0R4 A 501      31.270  39.511  18.330  1.00  0.00     0.059 A 
ATOM     29  F1  0R4 A 501      31.986  37.669  19.679  1.00  0.00    -0.206 F 
ENDBRANCH  20  23
ENDBRANCH  18  19
ENDBRANCH  15  18
ENDBRANCH  11  12
BRANCH  10  30
ATOM     30  C23 0R4 A 501      37.472  46.321  14.611  1.00  0.00     0.052 A 
ATOM     31  C27 0R4 A 501      36.844  45.409  13.748  1.00  0.00     0.020 A 
ATOM     32  C26 0R4 A 501      36.525  45.802  12.454  1.00  0.00     0.018 A 
ATOM     33  C25 0R4 A 501      36.845  47.096  12.014  1.00  0.00     0.089 A 
ATOM     34  N6  0R4 A 501      37.459  47.982  12.831  1.00  0.00    -0.352 N 
ATOM     35  C24 0R4 A 501      37.794  47.685  14.098  1.00  0.00     0.112 A 
ATOM     36  H6  0R4 A 501      37.676  48.912  12.471  1.00  0.00     0.166 HD
BRANCH  35  37
ATOM     37  N7  0R4 A 501      38.403  48.618  14.895  1.00  0.00    -0.385 N 
ATOM     38  H   0R4 A 501      38.607  49.512  14.538  1.00  0.00     0.157 HD
ATOM     39  H   0R4 A 501      38.636  48.394  15.825  1.00  0.00     0.157 HD
ENDBRANCH  35  37
ENDBRANCH  10  30
BRANCH   1  40
ATOM     40  C15 0R4 A 501      37.611  43.585  21.467  1.00  0.00    -0.007 A 
ATOM     41  C20 0R4 A 501      36.966  42.353  21.304  1.00  0.00     0.014 A 
ATOM     42  C19 0R4 A 501      36.544  41.632  22.424  1.00  0.00     0.003 A 
ATOM     43  C18 0R4 A 501      36.752  42.129  23.716  1.00  0.00     0.029 A 
ATOM     44  C17 0R4 A 501      37.386  43.370  23.885  1.00  0.00     0.035 A 
ATOM     45  C16 0R4 A 501      37.809  44.084  22.758  1.00  0.00     0.043 A 
BRANCH  44  46
ATOM     46  N5  0R4 A 501      37.578  43.852  25.151  1.00  0.00    -0.327 N 
ATOM     47  C21 0R4 A 501      37.608  45.147  25.514  1.00  0.00     0.218 C 
ATOM     48  O1  0R4 A 501      37.406  46.100  24.755  1.00  0.00    -0.274 OA
ATOM     49  C22 0R4 A 501      37.911  45.359  26.972  1.00  0.00     0.117 C 
ATOM     50  H   0R4 A 501      37.707  43.187  25.865  1.00  0.00     0.169 HD
ENDBRANCH  44  46
ENDBRANCH   1  40
TORSDOF 8
