REMARK  5 active torsions:
REMARK  status: ('A' for Active; 'I' for Inactive)
REMARK    1  A    between atoms: C2_2  and  N1_24 
REMARK       I    between atoms: C3_3  and  N2_26 
REMARK       I    between atoms: C3_3  and  N1_24 
REMARK    2  A    between atoms: C13_7  and  C15_9 
REMARK    3  A    between atoms: C15_9  and  C18_12 
REMARK    4  A    between atoms: C10_18  and  C9_19 
REMARK    5  A    between atoms: C7_27  and  C8_28 
REMARK       I    between atoms: C8_28  and  N3_29 
ROOT
ATOM      1  C1  1LT A1102      -3.080 -11.729  15.773  1.00  0.00     0.025 A 
ATOM      2  C2  1LT A1102      -1.603 -10.421  14.772  1.00  0.00     0.153 A 
ATOM      3  C9  1LT A1102      -2.750 -10.938  16.869  1.00  0.00     0.041 A 
ATOM      4  C   1LT A1102      -4.052 -12.864  15.772  1.00  0.00     0.070 C 
ATOM      5  S   1LT A1102      -1.577  -9.746  16.362  1.00  0.00    -0.051 SA
ATOM      6  N   1LT A1102      -2.419 -11.429  14.599  1.00  0.00    -0.339 N 
ATOM      7  HN  1LT A1102      -2.549 -11.925  13.717  1.00  0.00     0.168 HD
ENDROOT
BRANCH   2   8
ATOM      8  N1  1LT A1102      -0.829  -9.958  13.725  1.00  0.00    -0.289 N 
ATOM      9  C3  1LT A1102       0.044  -8.863  13.808  1.00  0.00     0.325 C 
ATOM     10  N2  1LT A1102       0.739  -8.517  12.665  1.00  0.00    -0.320 N 
ATOM     11  O   1LT A1102       0.190  -8.235  14.846  1.00  0.00    -0.247 OA
ATOM     12  C4  1LT A1102       0.676  -9.166  11.346  1.00  0.00     0.129 C 
ATOM     13  C7  1LT A1102       1.680  -7.385  12.691  1.00  0.00     0.180 C 
ATOM     14  C5  1LT A1102       1.328  -8.159  10.424  1.00  0.00     0.022 C 
ATOM     15  C6  1LT A1102       2.307  -7.399  11.288  1.00  0.00     0.037 C 
ATOM     16  H   1LT A1102      -0.895 -10.428  12.863  1.00  0.00     0.172 HD
BRANCH  13  17
ATOM     17  C8  1LT A1102       1.016  -6.045  13.014  1.00  0.00     0.238 C 
ATOM     18  O1  1LT A1102       1.610  -5.205  13.696  1.00  0.00    -0.271 OA
ATOM     19  N3  1LT A1102      -0.227  -5.881  12.591  1.00  0.00    -0.368 N 
ATOM     20  H   1LT A1102      -0.659  -6.580  12.049  1.00  0.00     0.159 HD
ATOM     21  H   1LT A1102      -0.720  -5.060  12.818  1.00  0.00     0.159 HD
ENDBRANCH  13  17
ENDBRANCH   2   8
BRANCH   3  22
ATOM     22  C10 1LT A1102      -3.184 -10.890  18.283  1.00  0.00    -0.014 A 
ATOM     23  C11 1LT A1102      -4.273 -11.629  18.732  1.00  0.00     0.030 A 
ATOM     24  C12 1LT A1102      -4.639 -11.527  20.056  1.00  0.00     0.089 A 
ATOM     25  N4  1LT A1102      -3.991 -10.769  20.952  1.00  0.00    -0.368 N 
ATOM     26  C13 1LT A1102      -2.916 -10.090  20.529  1.00  0.00     0.026 A 
ATOM     27  H4  1LT A1102      -4.305 -10.711  21.921  1.00  0.00     0.165 HD
ATOM     28  C14 1LT A1102      -2.478 -10.114  19.197  1.00  0.00     0.039 A 
BRANCH  26  29
ATOM     29  C15 1LT A1102      -2.140  -9.303  21.613  1.00  0.00     0.092 C 
ATOM     30  C16 1LT A1102      -1.064  -8.403  20.984  1.00  0.00     0.031 C 
ATOM     31  C17 1LT A1102      -3.111  -8.446  22.444  1.00  0.00     0.031 C 
BRANCH  29  32
ATOM     32  C18 1LT A1102      -1.381 -10.337  22.622  1.00  0.00     0.400 C 
ATOM     33  F1  1LT A1102      -0.536 -11.132  21.975  1.00  0.00    -0.170 F 
ATOM     34  F   1LT A1102      -2.219 -11.132  23.277  1.00  0.00    -0.170 F 
ATOM     35  F2  1LT A1102      -0.682  -9.668  23.538  1.00  0.00    -0.170 F 
ENDBRANCH  29  32
ENDBRANCH  26  29
ENDBRANCH   3  22
TORSDOF 5
