REMARK  4 active torsions:
REMARK  status: ('A' for Active; 'I' for Inactive)
REMARK    1  A    between atoms: O1_1  and  C22_2 
REMARK    2  A    between atoms: C12_9  and  C9_11 
REMARK    3  A    between atoms: N2_14  and  C8_15 
REMARK    4  A    between atoms: C15_22  and  N7_23 
ROOT
HETATM    1  O1  P2X A1175     -11.776 -35.180 -56.534  1.00  0.00    -0.359 OA
HETATM    2  H1  P2X A1175     -11.645 -36.161 -56.885  1.00  0.00     0.218 HD
ENDROOT
BRANCH   1   3
HETATM    3  C22 P2X A1175     -13.062 -34.783 -56.761  1.00  0.00     0.090 A 
HETATM    4  C23 P2X A1175     -13.574 -34.741 -58.078  1.00  0.00     0.025 A 
HETATM    5  C21 P2X A1175     -14.896 -34.341 -58.390  1.00  0.00     0.021 A 
HETATM    6  C18 P2X A1175     -15.734 -33.970 -57.338  1.00  0.00     0.082 A 
HETATM    7  C17 P2X A1175     -15.187 -34.018 -55.963  1.00  0.00     0.021 A 
HETATM    8  N5  P2X A1175     -17.021 -33.540 -57.197  1.00  0.00    -0.244 NA
HETATM    9  C20 P2X A1175     -13.876 -34.418 -55.688  1.00  0.00     0.025 A 
HETATM   10  C16 P2X A1175     -16.184 -33.609 -55.051  1.00  0.00     0.022 A 
HETATM   11  C12 P2X A1175     -17.289 -33.328 -55.855  1.00  0.00     0.101 A 
BRANCH  11  12
HETATM   12  C9  P2X A1175     -18.557 -32.852 -55.222  1.00  0.00     0.124 A 
HETATM   13  N3  P2X A1175     -19.429 -31.987 -55.792  1.00  0.00    -0.167 NA
HETATM   14  N2  P2X A1175     -20.505 -31.757 -54.919  1.00  0.00    -0.236 N 
HETATM   15  C11 P2X A1175     -20.297 -32.513 -53.749  1.00  0.00     0.166 A 
HETATM   16  C10 P2X A1175     -19.103 -33.207 -53.889  1.00  0.00     0.090 A 
HETATM   17  N4  P2X A1175     -21.021 -32.654 -52.606  1.00  0.00    -0.205 NA
HETATM   18  C15 P2X A1175     -18.682 -34.028 -52.855  1.00  0.00     0.140 A 
HETATM   19  N6  P2X A1175     -19.439 -34.133 -51.741  1.00  0.00    -0.207 NA
HETATM   20  C19 P2X A1175     -20.594 -33.455 -51.619  1.00  0.00     0.202 A 
BRANCH  14  21
HETATM   21  C8  P2X A1175     -21.625 -30.870 -55.234  1.00  0.00     0.107 C 
HETATM   22  C14 P2X A1175     -22.697 -31.718 -55.903  1.00  0.00     0.026 C 
HETATM   23  C13 P2X A1175     -22.155 -30.156 -53.987  1.00  0.00     0.026 C 
ENDBRANCH  14  21
BRANCH  18  24
HETATM   24  N7  P2X A1175     -17.530 -34.725 -52.938  1.00  0.00    -0.383 N 
HETATM   25  H2  P2X A1175     -16.921 -34.650 -53.815  1.00  0.00     0.157 HD
HETATM   26  H3  P2X A1175     -17.225 -35.353 -52.127  1.00  0.00     0.157 HD
ENDBRANCH  18  24
ENDBRANCH  11  12
ENDBRANCH   1   3
TORSDOF 4
