REMARK  2 active torsions:
REMARK  status: ('A' for Active; 'I' for Inactive)
REMARK    1  A    between atoms: CAQ_6  and  CAP_7 
REMARK    2  A    between atoms: CAP_7  and  NAE_8 
ROOT
ATOM      1  NAE 18F B 201      19.211 -18.102  12.690  1.00  0.00    -0.326 N 
ATOM      2  CAD 18F B 201      20.296 -18.622  12.067  1.00  0.00     0.063 A 
ATOM      3  CAI 18F B 201      21.446 -19.274  12.548  1.00  0.00     0.032 A 
ATOM      4  CAH 18F B 201      22.444 -19.682  11.626  1.00  0.00     0.002 A 
ATOM      5  CAG 18F B 201      22.236 -19.421  10.249  1.00  0.00     0.002 A 
ATOM      6  CAF 18F B 201      21.084 -18.753   9.787  1.00  0.00     0.032 A 
ATOM      7  CAC 18F B 201      20.104 -18.370  10.710  1.00  0.00     0.060 A 
ATOM      8  NAB 18F B 201      18.904 -17.677  10.553  1.00  0.00    -0.340 N 
ATOM      9  HAB 18F B 201      18.505 -17.351   9.673  1.00  0.00     0.167 HD
ATOM     10  CAA 18F B 201      18.374 -17.519  11.770  1.00  0.00     0.119 A 
ATOM     11  CAJ 18F B 201      17.102 -16.992  12.036  1.00  0.00     0.008 A 
ATOM     12  CAK 18F B 201      16.034 -17.597  11.361  1.00  0.00     0.015 A 
ATOM     13  CAL 18F B 201      14.704 -17.178  11.588  1.00  0.00     0.001 A 
ATOM     14  CAM 18F B 201      14.516 -16.194  12.563  1.00  0.00     0.000 A 
ATOM     15  CAN 18F B 201      15.567 -15.597  13.233  1.00  0.00     0.001 A 
ATOM     16  CAO 18F B 201      16.882 -16.000  12.986  1.00  0.00     0.015 A 
ENDROOT
BRANCH   1  17
ATOM     17  CAP 18F B 201      19.033 -18.133  14.175  1.00  0.00     0.169 C 
BRANCH  17  18
ATOM     18  CAQ 18F B 201      19.646 -16.878  14.875  1.00  0.00    -0.040 A 
ATOM     19  CAR 18F B 201      19.493 -16.744  16.251  1.00  0.00     0.009 A 
ATOM     20  CAS 18F B 201      20.037 -15.606  16.868  1.00  0.00     0.001 A 
ATOM     21  CAT 18F B 201      20.725 -14.617  16.179  1.00  0.00     0.000 A 
ATOM     22  CAU 18F B 201      20.919 -14.767  14.799  1.00  0.00     0.001 A 
ATOM     23  CAV 18F B 201      20.367 -15.899  14.173  1.00  0.00     0.009 A 
ENDBRANCH  17  18
ENDBRANCH   1  17
TORSDOF 2
