REMARK  7 active torsions:
REMARK  status: ('A' for Active; 'I' for Inactive)
REMARK    1  A    between atoms: C1_1  and  C7_9 
REMARK    2  A    between atoms: N11_11  and  C13_17 
REMARK    3  A    between atoms: C13_17  and  C14_18 
REMARK    4  A    between atoms: C18_22  and  C20_24 
REMARK    5  A    between atoms: C25_28  and  O26_32 
REMARK    6  A    between atoms: O26_32  and  C28_33 
REMARK    7  A    between atoms: C28_33  and  C29_34 
ROOT
ATOM      1  C1  3E8 A1401     108.006  17.626 141.386  1.00  0.00    -0.007 A 
ATOM      2  C2  3E8 A1401     108.236  16.392 141.982  1.00  0.00     0.036 A 
ATOM      3  C3  3E8 A1401     108.886  18.099 140.411  1.00  0.00     0.014 A 
ATOM      4  C4  3E8 A1401     109.353  15.640 141.614  1.00  0.00     0.045 A 
ATOM      5  C5  3E8 A1401     110.001  17.344 140.065  1.00  0.00     0.002 A 
ATOM      6  C6  3E8 A1401     110.238  16.103 140.654  1.00  0.00     0.023 A 
ATOM      7  C36 3E8 A1401     109.553  14.366 142.219  1.00  0.00     0.099 C 
ATOM      8  N37 3E8 A1401     109.644  13.303 142.672  1.00  0.00    -0.191 NA
ENDROOT
BRANCH   1   9
ATOM      9  C7  3E8 A1401     106.816  18.427 141.724  1.00  0.00     0.058 A 
ATOM     10  C8  3E8 A1401     106.069  18.268 142.992  1.00  0.00     0.037 A 
ATOM     11  C10 3E8 A1401     104.985  19.020 143.243  1.00  0.00     0.078 A 
ATOM     12  C12 3E8 A1401     104.545  19.999 142.254  1.00  0.00     0.262 A 
ATOM     13  O27 3E8 A1401     103.570  20.711 142.405  1.00  0.00    -0.267 OA
ATOM     14  N11 3E8 A1401     105.270  20.057 141.088  1.00  0.00    -0.253 N 
ATOM     15  N9  3E8 A1401     106.405  19.287 140.836  1.00  0.00    -0.295 N 
ATOM     16  H9  3E8 A1401     106.912  19.397 139.958  1.00  0.00     0.187 HD
BRANCH  14  17
ATOM     17  C13 3E8 A1401     105.001  21.017 140.013  1.00  0.00     0.191 C 
BRANCH  17  18
ATOM     18  C14 3E8 A1401     105.933  22.209 140.161  1.00  0.00    -0.037 A 
ATOM     19  C16 3E8 A1401     107.235  22.169 139.672  1.00  0.00     0.024 A 
ATOM     20  C18 3E8 A1401     108.087  23.252 139.822  1.00  0.00     0.009 A 
ATOM     21  C19 3E8 A1401     107.652  24.381 140.504  1.00  0.00     0.015 A 
ATOM     22  C17 3E8 A1401     106.367  24.433 140.977  1.00  0.00     0.002 A 
ATOM     23  C15 3E8 A1401     105.514  23.350 140.817  1.00  0.00     0.009 A 
BRANCH  20  24
ATOM     24  C20 3E8 A1401     109.477  23.122 139.402  1.00  0.00     0.115 A 
ATOM     25  N22 3E8 A1401     109.918  21.899 138.924  1.00  0.00    -0.349 N 
ATOM     26  H22 3E8 A1401     109.264  21.132 138.765  1.00  0.00     0.167 HD
ATOM     27  C24 3E8 A1401     111.255  21.746 138.670  1.00  0.00     0.128 A 
ATOM     28  C25 3E8 A1401     112.127  22.782 138.874  1.00  0.00     0.099 A 
ATOM     29  C23 3E8 A1401     111.669  24.007 139.339  1.00  0.00     0.128 A 
ATOM     30  N21 3E8 A1401     110.335  24.165 139.623  1.00  0.00    -0.349 N 
ATOM     31  H21 3E8 A1401     109.988  25.049 139.994  1.00  0.00     0.167 HD
BRANCH  28  32
ATOM     32  O26 3E8 A1401     113.440  22.552 138.576  1.00  0.00    -0.348 OA
BRANCH  32  33
ATOM     33  C28 3E8 A1401     114.461  23.378 139.107  1.00  0.00     0.180 C 
BRANCH  33  34
ATOM     34  C29 3E8 A1401     115.771  22.632 139.375  1.00  0.00     0.013 C 
ATOM     35  C30 3E8 A1401     116.095  21.685 138.232  1.00  0.00     0.034 C 
ATOM     36  C32 3E8 A1401     117.506  21.126 138.515  1.00  0.00     0.234 C 
ATOM     37  N34 3E8 A1401     117.562  20.432 139.826  1.00  0.00    -0.075 N 
ATOM     38  H   3E8 A1401     116.884  19.671 139.778  1.00  0.00     0.279 HD
ATOM     39  C35 3E8 A1401     118.918  19.885 140.045  1.00  0.00     0.269 C 
ATOM     40  C33 3E8 A1401     117.123  21.257 140.976  1.00  0.00     0.234 C 
ATOM     41  C31 3E8 A1401     115.716  21.827 140.681  1.00  0.00     0.034 C 
ENDBRANCH  33  34
ENDBRANCH  32  33
ENDBRANCH  28  32
ENDBRANCH  20  24
ENDBRANCH  17  18
ENDBRANCH  14  17
ENDBRANCH   1   9
TORSDOF 7
