REMARK  3 active torsions:
REMARK  status: ('A' for Active; 'I' for Inactive)
REMARK    1  A    between atoms: C1_1  and  C2_2 
REMARK    2  A    between atoms: N_10  and  C_11 
REMARK    3  A    between atoms: C6_21  and  C9_25 
ROOT
ATOM      1  C2  499 A 401      14.627  -0.527 195.375  1.00  0.00     0.046 A 
ATOM      2  C3  499 A 401      15.085  -1.819 195.448  1.00  0.00     0.106 A 
ATOM      3  C8  499 A 401      14.152  -0.193 196.700  1.00  0.00     0.025 A 
ATOM      4  C4  499 A 401      14.369  -1.325 197.496  1.00  0.00     0.116 A 
ATOM      5  N3  499 A 401      14.945  -2.300 196.728  1.00  0.00    -0.351 N 
ATOM      6  C7  499 A 401      13.625   0.932 197.329  1.00  0.00     0.030 A 
ATOM      7  C6  499 A 401      13.339   0.879 198.693  1.00  0.00    -0.007 A 
ATOM      8  C5  499 A 401      13.581  -0.319 199.370  1.00  0.00     0.102 A 
ATOM      9  N4  499 A 401      14.087  -1.431 198.803  1.00  0.00    -0.351 N 
ATOM     10  H4  499 A 401      14.244  -2.291 199.329  1.00  0.00     0.166 HD
ATOM     11  H   499 A 401      15.214  -3.194 197.039  1.00  0.00     0.166 HD
ENDROOT
BRANCH   1  12
ATOM     12  C1  499 A 401      14.745   0.345 194.253  1.00  0.00     0.178 A 
ATOM     13  N2  499 A 401      15.160   0.142 193.053  1.00  0.00    -0.276 N 
ATOM     14  N1  499 A 401      15.123   1.383 192.409  1.00  0.00    -0.263 N 
ATOM     15  H2  499 A 401      15.457  -0.747 192.651  1.00  0.00     0.189 HD
ATOM     16  C   499 A 401      14.673   2.219 193.291  1.00  0.00     0.238 A 
ATOM     17  H1  499 A 401      15.393   1.587 191.447  1.00  0.00     0.190 HD
ATOM     18  O   499 A 401      14.413   1.637 194.486  1.00  0.00    -0.259 OA
BRANCH  16  19
ATOM     19  N   499 A 401      14.434   3.524 193.202  1.00  0.00    -0.364 N 
ATOM     20  H   499 A 401      14.605   3.999 192.357  1.00  0.00     0.159 HD
ATOM     21  H   499 A 401      14.086   4.015 193.981  1.00  0.00     0.159 HD
ENDBRANCH  16  19
ENDBRANCH   1  12
BRANCH   7  22
ATOM     22  C9  499 A 401      12.808   2.087 199.387  1.00  0.00     0.003 A 
ATOM     23  C16 499 A 401      11.808   2.163 200.449  1.00  0.00     0.003 A 
ATOM     24  C11 499 A 401      11.633   3.531 200.740  1.00  0.00     0.043 A 
ATOM     25  C15 499 A 401      11.065   1.222 201.167  1.00  0.00     0.014 A 
ATOM     26  N5  499 A 401      12.471   4.248 199.915  1.00  0.00    -0.364 N 
ATOM     27  C12 499 A 401      10.742   3.963 201.721  1.00  0.00     0.030 A 
ATOM     28  C10 499 A 401      13.166   3.385 199.112  1.00  0.00     0.101 A 
ATOM     29  H   499 A 401      12.557   5.229 199.905  1.00  0.00     0.165 HD
ATOM     30  C13 499 A 401      10.015   3.005 202.425  1.00  0.00     0.002 A 
ATOM     31  C14 499 A 401      10.172   1.652 202.150  1.00  0.00     0.001 A 
ENDBRANCH   7  22
TORSDOF 3
