REMARK  8 active torsions:
REMARK  status: ('A' for Active; 'I' for Inactive)
REMARK    1  A    between atoms: C_1  and  N_14 
REMARK    2  A    between atoms: N_14  and  C_16 
REMARK    3  A    between atoms: C_20  and  C_23 
REMARK    4  A    between atoms: C_22  and  O_31 
REMARK    5  A    between atoms: O_31  and  C_32 
REMARK    6  A    between atoms: N_35  and  C_37 
REMARK    7  A    between atoms: C_38  and  S_43 
REMARK    8  A    between atoms: S_43  and  C_46 
ROOT
ATOM      1  C   4LO A1503     -22.767  11.132  -9.129  1.00  0.00     0.686 A 
ATOM      2  C   4LO A1503     -20.822  12.426  -8.820  1.00  0.00     0.137 A 
ATOM      3  N   4LO A1503     -21.634  11.405  -8.536  1.00  0.00    -0.175 N 
ATOM      4  HN  4LO A1503     -21.343  10.779  -7.785  1.00  0.00     0.186 HD
ATOM      5  C   4LO A1503     -21.306  13.245  -9.815  1.00  0.00     0.071 A 
ATOM      6  C   4LO A1503     -20.846  14.481 -10.527  1.00  0.00     0.126 A 
ATOM      7  N   4LO A1503     -21.716  14.784 -11.340  1.00  0.00    -0.309 N 
ATOM      8  N   4LO A1503     -22.737  13.946 -11.320  1.00  0.00    -0.285 N 
ATOM      9  HN  4LO A1503     -23.568  14.015 -11.908  1.00  0.00     0.188 HD
ATOM     10  C   4LO A1503     -22.515  13.004 -10.420  1.00  0.00     0.151 A 
ATOM     11  N   4LO A1503     -23.239  11.943 -10.063  1.00  0.00    -0.174 N 
ATOM     12  HN  4LO A1503     -24.141  11.759 -10.502  1.00  0.00     0.186 HD
ATOM     13  H   4LO A1503     -21.659  15.563 -11.939  1.00  0.00     0.186 HD
ATOM     14  N   4LO A1503     -19.632  12.675  -8.249  1.00  0.00    -0.340 N 
ATOM     15  H   4LO A1503     -19.138  13.443  -8.618  1.00  0.00     0.167 HD
ENDROOT
BRANCH   1  16
ATOM     16  N   4LO A1503     -23.446  10.012  -8.758  1.00  0.00    -0.189 N 
ATOM     17  H   4LO A1503     -24.366   9.923  -9.096  1.00  0.00     0.184 HD
BRANCH  16  18
ATOM     18  C   4LO A1503     -22.987   9.003  -7.969  1.00  0.00     0.083 A 
ATOM     19  C   4LO A1503     -23.895   8.238  -7.264  1.00  0.00     0.097 A 
ATOM     20  C   4LO A1503     -23.445   7.195  -6.459  1.00  0.00     0.047 A 
ATOM     21  C   4LO A1503     -22.096   6.923  -6.336  1.00  0.00    -0.045 A 
ATOM     22  C   4LO A1503     -21.180   7.667  -7.037  1.00  0.00    -0.053 A 
ATOM     23  C   4LO A1503     -19.693   7.418  -6.957  1.00  0.00     0.049 C 
ATOM     24  C   4LO A1503     -21.662   8.706  -7.833  1.00  0.00     0.040 A 
BRANCH  19  25
ATOM     25  O   4LO A1503     -25.190   8.587  -7.418  1.00  0.00    -0.344 OA
BRANCH  25  26
ATOM     26  C   4LO A1503     -26.274   7.845  -6.866  1.00  0.00     0.120 C 
ATOM     27  C   4LO A1503     -26.384   6.575  -7.730  1.00  0.00     0.040 C 
ATOM     28  C   4LO A1503     -27.553   8.711  -6.868  1.00  0.00     0.040 C 
ENDBRANCH  25  26
ENDBRANCH  19  25
BRANCH  21  29
ATOM     29  C   4LO A1503     -21.628   5.755  -5.429  1.00  0.00     0.022 C 
ATOM     30  C   4LO A1503     -22.593   5.611  -4.247  1.00  0.00     0.037 C 
ATOM     31  C   4LO A1503     -22.068   4.447  -3.364  1.00  0.00     0.235 C 
ATOM     32  N   4LO A1503     -22.089   3.222  -4.127  1.00  0.00    -0.075 N 
ATOM     33  C   4LO A1503     -21.170   3.235  -5.280  1.00  0.00     0.235 C 
ATOM     34  C   4LO A1503     -23.452   2.673  -4.334  1.00  0.00     0.269 C 
ATOM     35  H   4LO A1503     -21.672   2.497  -3.543  1.00  0.00     0.279 HD
ATOM     36  C   4LO A1503     -21.551   4.426  -6.192  1.00  0.00     0.037 C 
ENDBRANCH  21  29
ENDBRANCH  16  18
ENDBRANCH   1  16
BRANCH  14  37
ATOM     37  C   4LO A1503     -19.019  12.023  -7.243  1.00  0.00     0.055 A 
ATOM     38  C   4LO A1503     -19.724  11.204  -6.393  1.00  0.00     0.031 A 
ATOM     39  C   4LO A1503     -19.117  10.575  -5.328  1.00  0.00     0.002 A 
ATOM     40  C   4LO A1503     -17.797  10.741  -5.107  1.00  0.00     0.002 A 
ATOM     41  C   4LO A1503     -17.042  11.518  -5.938  1.00  0.00     0.026 A 
ATOM     42  C   4LO A1503     -17.650  12.156  -7.001  1.00  0.00     0.086 A 
BRANCH  42  43
ATOM     43  S   4LO A1503     -16.622  13.179  -7.998  1.00  0.00     0.181 S 
ATOM     44  O   4LO A1503     -17.381  14.142  -8.534  1.00  0.00    -0.222 OA
ATOM     45  O   4LO A1503     -15.596  13.639  -7.229  1.00  0.00    -0.222 OA
BRANCH  43  46
ATOM     46  C   4LO A1503     -15.884  12.243  -9.334  1.00  0.00     0.105 C 
ATOM     47  C   4LO A1503     -15.062  11.215  -8.572  1.00  0.00     0.026 C 
ATOM     48  C   4LO A1503     -16.985  11.670 -10.247  1.00  0.00     0.026 C 
ENDBRANCH  43  46
ENDBRANCH  42  43
ENDBRANCH  14  37
TORSDOF 8
