REMARK  4 active torsions:
REMARK  status: ('A' for Active; 'I' for Inactive)
REMARK    1  A    between atoms: C_5  and  C_8 
REMARK    2  A    between atoms: C_6  and  N_23 
REMARK       I    between atoms: C_8  and  N_22 
REMARK    3  A    between atoms: C_17  and  N_23 
REMARK    4  A    between atoms: C_18  and  O_25 
ROOT
ATOM      1  C   9T6 A1201     -14.483   0.381 -14.986  1.00  0.00     0.034 A 
ATOM      2  C   9T6 A1201     -17.218  -1.459 -12.537  1.00  0.00     0.108 A 
ATOM      3  C   9T6 A1201     -13.650   0.739 -14.010  1.00  0.00     0.090 A 
ATOM      4  C   9T6 A1201     -15.571  -0.308 -14.403  1.00  0.00     0.032 A 
ATOM      5  C   9T6 A1201     -17.615  -1.542 -13.851  1.00  0.00     0.069 A 
ATOM      6  C   9T6 A1201     -16.770  -0.936 -14.837  1.00  0.00     0.040 A 
ATOM      7  C   9T6 A1201     -15.257  -0.280 -13.048  1.00  0.00     0.117 A 
ATOM      8  N   9T6 A1201     -16.090  -0.873 -12.171  1.00  0.00    -0.351 N 
ATOM      9  HN  9T6 A1201     -15.840  -0.870 -11.182  1.00  0.00     0.166 HD
ATOM     10  N   9T6 A1201     -14.128   0.334 -12.855  1.00  0.00    -0.352 N 
ATOM     11  H   9T6 A1201     -13.698   0.474 -11.980  1.00  0.00     0.166 HD
ENDROOT
BRANCH   6  12
ATOM     12  N   9T6 A1201     -17.120  -1.020 -16.155  1.00  0.00    -0.286 NA
ATOM     13  H   9T6 A1201     -18.045  -0.592 -16.116  1.00  0.00     0.128 HD
BRANCH  12  14
ATOM     14  C   9T6 A1201     -16.537  -0.249 -17.253  1.00  0.00     0.068 C 
ATOM     15  C   9T6 A1201     -16.960   1.231 -17.131  1.00  0.00     0.007 C 
ATOM     16  C   9T6 A1201     -18.472   1.343 -17.292  1.00  0.00     0.011 C 
ATOM     17  C   9T6 A1201     -16.254   2.060 -18.208  1.00  0.00     0.044 C 
ATOM     18  C   9T6 A1201     -18.902   0.854 -18.682  1.00  0.00    -0.011 C 
ATOM     19  C   9T6 A1201     -18.525  -0.626 -18.811  1.00  0.00     0.011 C 
ATOM     20  C   9T6 A1201     -18.154   1.617 -19.780  1.00  0.00     0.042 C 
ATOM     21  C   9T6 A1201     -16.997  -0.774 -18.606  1.00  0.00     0.007 C 
ATOM     22  C   9T6 A1201     -16.249   0.035 -19.686  1.00  0.00     0.044 C 
ATOM     23  C   9T6 A1201     -16.644   1.519 -19.591  1.00  0.00     0.059 C 
BRANCH  23  24
ATOM     24  O   9T6 A1201     -16.009   2.278 -20.612  1.00  0.00    -0.390 OA
ATOM     25  H   9T6 A1201     -16.262   1.928 -21.480  1.00  0.00     0.210 HD
ENDBRANCH  23  24
ENDBRANCH  12  14
ENDBRANCH   6  12
BRANCH   5  26
ATOM     26  C   9T6 A1201     -18.876  -2.247 -14.171  1.00  0.00     0.252 C 
ATOM     27  O   9T6 A1201     -19.269  -2.289 -15.322  1.00  0.00    -0.268 OA
ATOM     28  N   9T6 A1201     -19.644  -2.877 -13.240  1.00  0.00    -0.366 N 
ATOM     29  H   9T6 A1201     -20.474  -3.330 -13.512  1.00  0.00     0.159 HD
ATOM     30  H   9T6 A1201     -19.369  -2.879 -12.295  1.00  0.00     0.159 HD
ENDBRANCH   5  26
TORSDOF 4
