REMARK  6 active torsions:
REMARK  status: ('A' for Active; 'I' for Inactive)
REMARK    1  A    between atoms: C4_1  and  C1_10 
REMARK    2  A    between atoms: C4_1  and  O8_8 
REMARK    3  A    between atoms: C6_2  and  C2_15 
REMARK    4  A    between atoms: C6_2  and  N10_16 
REMARK    5  A    between atoms: C7_3  and  C11_12 
REMARK    6  A    between atoms: C12_7  and  O8_8 
ROOT
ATOM      1  C7  BOQ S1101     183.917 120.591 277.144  1.00  0.00     0.062 A 
ATOM      2  C1  BOQ S1101     183.312 120.787 279.185  1.00  0.00     0.073 A 
ATOM      3  C3  BOQ S1101     182.911 120.336 277.991  1.00  0.00     0.053 A 
ATOM      4  O5  BOQ S1101     184.949 121.209 277.781  1.00  0.00    -0.316 OA
ATOM      5  C2  BOQ S1101     184.577 121.345 279.071  1.00  0.00     0.097 A 
ENDROOT
BRANCH   2   6
ATOM      6  C4  BOQ S1101     182.514 120.726 280.486  1.00  0.00     0.295 C 
ATOM      7  O9  BOQ S1101     182.926 121.267 281.518  1.00  0.00    -0.259 OA
BRANCH   6   8
ATOM      8  O8  BOQ S1101     181.313 120.111 280.489  1.00  0.00    -0.318 OA
BRANCH   8   9
ATOM      9  C12 BOQ S1101     181.087 119.381 281.692  1.00  0.00     0.174 C 
ATOM     10  C16 BOQ S1101     180.494 118.049 281.260  1.00  0.00     0.034 C 
ENDBRANCH   8   9
ENDBRANCH   6   8
ENDBRANCH   2   6
BRANCH   5  11
ATOM     11  C6  BOQ S1101     185.502 122.003 280.107  1.00  0.00     0.332 C 
BRANCH  11  12
ATOM     12  N10 BOQ S1101     184.791 123.039 280.858  1.00  0.00     0.084 N 
ATOM     13  H   BOQ S1101     184.466 123.762 280.216  1.00  0.00     0.313 HD
ATOM     14  H   BOQ S1101     183.991 122.624 281.336  1.00  0.00     0.313 HD
ENDBRANCH  11  12
ENDBRANCH   5  11
BRANCH   1  15
ATOM     15  C11 BOQ S1101     183.999 120.296 275.643  1.00  0.00    -0.002 C 
ATOM     16  C13 BOQ S1101     182.640 119.828 275.112  1.00  0.00     0.021 C 
ATOM     17  C15 BOQ S1101     184.379 121.612 274.955  1.00  0.00     0.021 C 
ATOM     18  C14 BOQ S1101     185.086 119.248 275.368  1.00  0.00     0.021 C 
ENDBRANCH   1  15
TORSDOF 6
