REMARK  2 active torsions:
REMARK  status: ('A' for Active; 'I' for Inactive)
REMARK    1  A    between atoms: C_7  and  C_8 
REMARK    2  A    between atoms: C_20  and  N_21 
ROOT
HETATM    1  C   DXK A1001       9.517   8.004  11.480  1.00  0.00     0.119 A 
HETATM    2  N   DXK A1001       9.560   6.715  11.844  1.00  0.00    -0.332 N 
ATOM      3  HN  DXK A1001       8.712   6.149  11.819  1.00  0.00     0.168 HD
HETATM    4  N   DXK A1001      10.638   8.731  11.525  1.00  0.00    -0.326 N 
ATOM      5  HN  DXK A1001      10.609   9.709  11.237  1.00  0.00     0.169 HD
HETATM    6  C   DXK A1001      11.803   8.203  11.941  1.00  0.00     0.138 A 
HETATM    7  N   DXK A1001      13.029   8.729  12.084  1.00  0.00    -0.281 N 
HETATM    8  C   DXK A1001      13.412  10.113  11.789  1.00  0.00     0.179 C 
HETATM    9  N   DXK A1001      13.819   7.879  12.497  1.00  0.00    -0.307 N 
ATOM     10  HN  DXK A1001      14.806   8.025  12.710  1.00  0.00     0.186 HD
HETATM   11  C   DXK A1001      13.142   6.725  12.616  1.00  0.00     0.126 A 
HETATM   12  C   DXK A1001      11.857   6.922  12.292  1.00  0.00     0.065 A 
HETATM   13  C   DXK A1001      10.724   6.169  12.242  1.00  0.00     0.095 A 
ENDROOT
BRANCH   1  14
HETATM   14  C   DXK A1001       8.323   8.592  11.050  1.00  0.00     0.023 A 
HETATM   15  C   DXK A1001       7.188   7.812  10.816  1.00  0.00     0.018 A 
HETATM   16  C   DXK A1001       5.996   8.399  10.391  1.00  0.00     0.018 A 
HETATM   17  C   DXK A1001       5.930   9.771  10.197  1.00  0.00     0.087 A 
HETATM   18  N   DXK A1001       7.059  10.563  10.424  1.00  0.00    -0.374 N 
HETATM   19  C   DXK A1001       8.256   9.970  10.853  1.00  0.00     0.102 A 
ATOM     20  HN  DXK A1001       7.013  11.571  10.278  1.00  0.00     0.164 HD
ENDBRANCH   1  14
BRANCH  13  21
HETATM   21  N   DXK A1001      10.742   4.861  12.596  1.00  0.00    -0.288 NA
HETATM   22  H   DXK A1001       9.785   4.527  12.712  1.00  0.00     0.125 HD
HETATM   23  H   DXK A1001      11.206   4.318  11.868  1.00  0.00     0.125 HD
ENDBRANCH  13  21
TORSDOF 2
