REMARK  6 active torsions:
REMARK  status: ('A' for Active; 'I' for Inactive)
REMARK    1  A    between atoms: C9_13  and  N13_16 
REMARK    2  A    between atoms: N13_16  and  C14_17 
REMARK    3  A    between atoms: C16_21  and  N21_23 
REMARK       I    between atoms: N21_23  and  C22_24 
REMARK    4  A    between atoms: C22_24  and  C23_25 
REMARK    5  A    between atoms: C27_28  and  C46_31 
REMARK    6  A    between atoms: C46_31  and  N48_32 
ROOT
ATOM      1  C14 STI A1001     -40.220 160.196   0.948  1.00  0.00     0.057 A 
ATOM      2  C19 STI A1001     -41.594 160.061   1.139  1.00  0.00    -0.035 A 
ATOM      3  C18 STI A1001     -42.058 159.102   2.008  1.00  0.00     0.011 A 
ATOM      4  C17 STI A1001     -41.181 158.298   2.714  1.00  0.00     0.030 A 
ATOM      5  C16 STI A1001     -39.813 158.407   2.561  1.00  0.00     0.037 A 
ATOM      6  C15 STI A1001     -39.343 159.386   1.678  1.00  0.00     0.060 A 
ATOM      7  C20 STI A1001     -42.523 160.828   0.460  1.00  0.00     0.050 C 
ENDROOT
BRANCH   5   8
ATOM      8  N21 STI A1001     -39.060 157.590   3.330  1.00  0.00    -0.323 N 
ATOM      9  C22 STI A1001     -37.727 157.474   3.224  1.00  0.00     0.256 C 
ATOM     10  O29 STI A1001     -37.045 158.083   2.417  1.00  0.00    -0.267 OA
ATOM     11  H   STI A1001     -39.518 157.046   4.011  1.00  0.00     0.169 HD
BRANCH   9  12
ATOM     12  C23 STI A1001     -37.109 156.610   4.150  1.00  0.00     0.032 A 
ATOM     13  C25 STI A1001     -35.771 156.816   4.460  1.00  0.00     0.017 A 
ATOM     14  C26 STI A1001     -35.087 156.013   5.371  1.00  0.00     0.010 A 
ATOM     15  C27 STI A1001     -35.742 154.982   6.024  1.00  0.00    -0.030 A 
ATOM     16  C28 STI A1001     -37.089 154.783   5.741  1.00  0.00     0.010 A 
ATOM     17  C29 STI A1001     -37.771 155.585   4.816  1.00  0.00     0.017 A 
BRANCH  15  18
ATOM     18  C46 STI A1001     -35.044 154.184   6.952  1.00  0.00     0.311 C 
BRANCH  18  19
ATOM     19  N48 STI A1001     -35.165 152.745   6.688  1.00  0.00     0.095 N 
ATOM     20  C53 STI A1001     -34.674 152.386   5.359  1.00  0.00     0.300 C 
ATOM     21  C52 STI A1001     -34.940 150.942   5.066  1.00  0.00     0.264 C 
ATOM     22  N51 STI A1001     -34.302 150.092   6.074  1.00  0.00    -0.072 N 
ATOM     23  C54 STI A1001     -34.528 148.688   5.743  1.00  0.00     0.269 C 
ATOM     24  C50 STI A1001     -34.778 150.426   7.422  1.00  0.00     0.264 C 
ATOM     25  H   STI A1001     -33.296 150.261   6.070  1.00  0.00     0.279 HD
ATOM     26  C49 STI A1001     -34.528 151.906   7.714  1.00  0.00     0.300 C 
ENDBRANCH  18  19
ENDBRANCH  15  18
ENDBRANCH   9  12
ENDBRANCH   5   8
BRANCH   1  27
ATOM     27  N13 STI A1001     -39.844 161.167   0.103  1.00  0.00    -0.191 N 
ATOM     28  H   STI A1001     -39.888 162.097   0.423  1.00  0.00     0.184 HD
BRANCH  27  29
ATOM     29  C9  STI A1001     -39.416 160.959  -1.137  1.00  0.00     0.679 A 
ATOM     30  N10 STI A1001     -39.188 159.732  -1.593  1.00  0.00    -0.223 N 
ATOM     31  C11 STI A1001     -38.745 159.544  -2.881  1.00  0.00     0.167 A 
ATOM     32  H10 STI A1001     -39.342 158.927  -0.986  1.00  0.00     0.178 HD
ATOM     33  C12 STI A1001     -38.530 160.641  -3.683  1.00  0.00     0.024 A 
ATOM     34  C7  STI A1001     -38.780 161.906  -3.192  1.00  0.00     0.058 A 
ATOM     35  C5  STI A1001     -38.551 163.018  -3.999  1.00  0.00     0.006 A 
ATOM     36  N8  STI A1001     -39.203 162.026  -1.934  1.00  0.00    -0.191 N 
ATOM     37  C6  STI A1001     -38.291 162.877  -5.352  1.00  0.00     0.016 A 
ATOM     38  C4  STI A1001     -38.563 164.282  -3.447  1.00  0.00     0.101 A 
ATOM     39  C1  STI A1001     -38.051 164.006  -6.126  1.00  0.00     0.018 A 
ATOM     40  C2  STI A1001     -38.070 165.275  -5.568  1.00  0.00     0.087 A 
ATOM     41  N3  STI A1001     -38.322 165.410  -4.214  1.00  0.00    -0.374 N 
ATOM     42  H3  STI A1001     -38.330 166.335  -3.783  1.00  0.00     0.164 HD
ATOM     43  H8  STI A1001     -39.372 162.960  -1.560  1.00  0.00     0.184 HD
ENDBRANCH  27  29
ENDBRANCH   1  27
TORSDOF 6
