REMARK  5 active torsions:
REMARK  status: ('A' for Active; 'I' for Inactive)
REMARK    1  A    between atoms: C2_2  and  C8_7 
REMARK    2  A    between atoms: C5_5  and  N7_24 
REMARK    3  A    between atoms: C17_13  and  N32_20 
REMARK    4  A    between atoms: C21_15  and  N14_17 
REMARK       I    between atoms: N7_24  and  C23_25 
REMARK       I    between atoms: C23_25  and  N24_27 
REMARK    5  A    between atoms: N24_27  and  C25_28 
ROOT
ATOM      1  C1  JWY A          16.171 -17.146   4.758  0.00  0.00     0.107 A 
ATOM      2  C2  JWY A          15.868 -18.501   4.521  0.00  0.00    -0.014 A 
ATOM      3  C3  JWY A          14.757 -19.069   5.134  0.00  0.00     0.032 A 
ATOM      4  C4  JWY A          13.921 -18.367   5.991  0.00  0.00     0.021 A 
ATOM      5  C5  JWY A          15.338 -16.438   5.632  0.00  0.00     0.033 A 
ATOM      6  C6  JWY A          14.203 -17.035   6.221  0.00  0.00     0.084 A 
ATOM      7 CL9  JWY A          14.316 -20.750   4.843  0.00  0.00    -0.080 Cl
ATOM      8  F10 JWY A          13.387 -16.276   7.026  0.00  0.00    -0.145 F 
ENDROOT
BRANCH   2   9
ATOM      9  C8  JWY A          16.732 -19.316   3.629  0.00  0.00    -0.162 A 
ATOM     10  C11 JWY A          16.291 -19.642   2.357  0.00  0.00     0.174 A 
ATOM     11  C12 JWY A          17.138 -20.435   1.538  0.00  0.00    -0.317 A 
ATOM     12  C13 JWY A          18.395 -20.842   1.960  0.00  0.00     0.179 A 
ATOM     13  C19 JWY A          16.674 -20.783   0.234  0.00  0.00     0.527 A 
ATOM     14  C16 JWY A          19.198 -21.632   1.087  0.00  0.00    -0.226 A 
ATOM     15  N14 JWY A          18.857 -20.498   3.206  0.00  0.00    -0.347 N 
ATOM     16  C17 JWY A          18.693 -21.966  -0.187  0.00  0.00     0.694 A 
ATOM     17  N18 JWY A          17.486 -21.534  -0.568  0.00  0.00    -0.745 NA
ATOM     18  C15 JWY A          18.072 -19.754   4.047  0.00  0.00     0.713 A 
ATOM     19  O20 JWY A          18.495 -19.448   5.209  0.00  0.00    -0.622 OA
BRANCH  16  20
ATOM     20  N32 JWY A          19.402 -22.701  -1.085  0.00  0.00    -0.856 N 
ATOM     21  C33 JWY A          20.607 -23.463  -0.718  0.00  0.00     0.319 C 
ATOM     22  H32 JWY A          19.089 -22.725  -2.045  0.00  0.00     0.437 HD
ENDBRANCH  16  20
BRANCH  15  23
ATOM     23  C21 JWY A          20.218 -20.874   3.655  0.00  0.00     0.218 C 
ATOM     24  C22 JWY A          20.451 -22.284   4.162  0.00  0.00     0.024 C 
ENDBRANCH  15  23
ENDBRANCH   2   9
BRANCH   5  25
ATOM     25  N7  JWY A          15.464 -15.064   5.846  0.00  0.00    -0.390 N 
ATOM     26  C23 JWY A          16.066 -14.154   5.029  0.00  0.00     0.637 C 
ATOM     27  O31 JWY A          16.748 -14.512   4.048  0.00  0.00    -0.606 OA
ATOM     28  N24 JWY A          15.897 -12.862   5.395  0.00  0.00    -0.393 N 
ATOM     29  H24 JWY A          15.259 -12.701   6.161  0.00  0.00     0.310 HD
ATOM     30  H7  JWY A          15.065 -14.704   6.701  0.00  0.00     0.317 HD
BRANCH  28  31
ATOM     31  C25 JWY A          16.499 -11.713   4.843  0.00  0.00     0.062 A 
ATOM     32  C26 JWY A          16.541 -10.574   5.663  0.00  0.00    -0.009 A 
ATOM     33  C27 JWY A          17.153  -9.379   5.202  0.00  0.00     0.026 A 
ATOM     34  C28 JWY A          17.743  -9.314   3.922  0.00  0.00    -0.016 A 
ATOM     35  C29 JWY A          17.695 -10.464   3.107  0.00  0.00     0.026 A 
ATOM     36  C30 JWY A          17.098 -11.658   3.551  0.00  0.00    -0.009 A 
ENDBRANCH  28  31
ENDBRANCH   5  25
TORSDOF 5
