REMARK  13 active torsions:
REMARK  status: ('A' for Active; 'I' for Inactive)
REMARK    1  A    between atoms: C13_3  and  N_18 
REMARK    2  A    between atoms: C13_3  and  C4_37 
REMARK    3  A    between atoms: C20_9  and  O6_61 
REMARK    4  A    between atoms: C24_12  and  C21_25 
REMARK       I    between atoms: C24_12  and  N2_49 
REMARK    5  A    between atoms: C25_13  and  S_62 
REMARK    6  A    between atoms: C28_15  and  N3_50 
REMARK    7  A    between atoms: C31_17  and  C32_29 
REMARK    8  A    between atoms: C31_17  and  N3_50 
REMARK    9  A    between atoms: C18_23  and  N1_48 
REMARK   10  A    between atoms: C27_26  and  N4_51 
REMARK   11  A    between atoms: C37_34  and  O6_61 
REMARK   12  A    between atoms: C5_43  and  C7_45 
REMARK   13  A    between atoms: N2_49  and  S_62 
ROOT
HETATM    1  C19 LBM A 301     -17.374   3.104 -10.661  0.61  9.57     0.067 A 
HETATM    2  C20 LBM A 301     -17.768   3.250  -9.353  0.61  9.64     0.093 A 
HETATM    3  C22 LBM A 301     -16.797   5.423  -9.278  0.61 10.69     0.022 A 
HETATM    4  C23 LBM A 301     -16.412   5.288 -10.599  0.61 12.48     0.030 A 
HETATM    5  C18 LBM A 301     -16.706   4.120 -11.318  0.61 10.37     0.033 A 
HETATM    6  C21 LBM A 301     -17.503   4.407  -8.620  0.61 11.22     0.061 A 
ENDROOT
BRANCH   6   7
HETATM    7  C24 LBM A 301     -17.906   4.594  -7.187  0.61 14.08     0.247 C 
HETATM    8  O   LBM A 301     -18.833   3.961  -6.668  0.61 17.31    -0.273 OA
HETATM    9  N2  LBM A 301     -17.170   5.496  -6.444  0.61 14.68    -0.146 NA
HETATM   10  H1  LBM A 301     -17.430   6.469  -6.805  0.61 15.93     0.149 HD
BRANCH   9  11
HETATM   11  S   LBM A 301     -17.296   5.555  -4.845  0.61 14.72     0.248 S 
HETATM   12  O1  LBM A 301     -18.660   5.865  -4.468  0.61 12.54    -0.205 OA
HETATM   13  O2  LBM A 301     -16.251   6.423  -4.400  0.61 14.51    -0.205 OA
BRANCH  11  14
HETATM   14  C25 LBM A 301     -16.930   3.891  -4.309  0.61 10.27     0.077 A 
HETATM   15  C26 LBM A 301     -15.600   3.560  -4.052  0.61  9.72     0.063 A 
HETATM   16  C27 LBM A 301     -15.290   2.265  -3.678  0.61  8.50     0.130 A 
HETATM   17  C28 LBM A 301     -16.272   1.248  -3.534  0.61 13.78     0.061 A 
HETATM   18  C29 LBM A 301     -17.597   1.627  -3.827  0.61 12.23     0.033 A 
HETATM   19  C30 LBM A 301     -17.925   2.938  -4.187  0.61 13.18     0.027 A 
BRANCH  16  20
HETATM   20  N4  LBM A 301     -13.869   1.997  -3.491  0.61 13.67    -0.113 N 
HETATM   21  O4  LBM A 301     -13.510   0.888  -3.144  0.61 15.39    -0.532 OA
HETATM   22  O5  LBM A 301     -13.085   2.926  -3.666  0.61 14.63    -0.532 OA
ENDBRANCH  16  20
BRANCH  17  23
HETATM   23  N3  LBM A 301     -15.932  -0.024  -3.108  0.61 15.98    -0.388 N 
HETATM   24  H2  LBM A 301     -14.908  -0.208  -2.859  0.61 15.93     0.159 HD
BRANCH  23  25
HETATM   25  C31 LBM A 301     -16.871  -1.130  -2.975  0.61 19.97     0.124 C 
BRANCH  25  26
HETATM   26  C32 LBM A 301     -16.274  -2.217  -2.092  0.61 26.65     0.007 C 
HETATM   27  C33 LBM A 301     -17.056  -3.520  -2.213  0.61 30.48     0.032 C 
HETATM   28  C34 LBM A 301     -16.414  -4.586  -1.351  0.61 34.09     0.168 C 
HETATM   29  O3  LBM A 301     -15.061  -4.812  -1.733  0.61 35.77    -0.391 OA
HETATM   30  C35 LBM A 301     -14.299  -3.618  -1.540  0.61 34.45     0.168 C 
HETATM   31  C36 LBM A 301     -14.820  -2.499  -2.411  0.61 31.14     0.032 C 
ENDBRANCH  25  26
ENDBRANCH  23  25
ENDBRANCH  17  23
ENDBRANCH  11  14
ENDBRANCH   9  11
ENDBRANCH   6   7
BRANCH   2  32
HETATM   32  O6  LBM A 301     -18.411   2.202  -8.721  0.61 10.20    -0.308 OA
BRANCH  32  33
HETATM   33  C37 LBM A 301     -17.698   1.241  -8.034  0.61 10.68     0.092 A 
HETATM   34  C38 LBM A 301     -18.310   0.057  -7.672  0.61 12.33     0.127 A 
HETATM   35  N5  LBM A 301     -17.678  -0.943  -7.043  0.61 12.17    -0.349 N 
HETATM   36  C39 LBM A 301     -16.385  -0.706  -6.699  0.61 14.07     0.115 A 
ATOM     37  H5  LBM A 301     -18.139  -1.829  -6.835  1.00  0.00     0.167 HD
HETATM   38  C40 LBM A 301     -15.690   0.485  -6.997  0.61  9.74     0.012 A 
HETATM   39  N6  LBM A 301     -15.525  -1.583  -6.106  0.61 14.26    -0.352 N 
HETATM   40  C41 LBM A 301     -16.360   1.475  -7.708  0.61 11.04     0.054 A 
HETATM   41  C42 LBM A 301     -14.325   0.282  -6.522  0.61 11.05     0.032 A 
HETATM   42  C43 LBM A 301     -14.280  -0.975  -6.005  0.61 10.83     0.090 A 
ATOM     43  H6  LBM A 301     -15.757  -2.525  -5.790  1.00  0.00     0.166 HD
ENDBRANCH  32  33
ENDBRANCH   2  32
BRANCH   5  44
HETATM   44  N1  LBM A 301     -16.299   3.956 -12.630  0.61 13.88    -0.377 N 
HETATM   45  C15 LBM A 301     -15.567   4.997 -13.367  0.61 14.75     0.153 C 
HETATM   46  C14 LBM A 301     -14.826   4.386 -14.562  0.61 13.99     0.292 C 
HETATM   47  N   LBM A 301     -15.744   3.650 -15.461  0.61 14.95     0.095 N 
HETATM   48  C17 LBM A 301     -16.415   2.594 -14.667  0.61 13.98     0.292 C 
HETATM   49  C16 LBM A 301     -17.193   3.210 -13.518  0.61 10.05     0.153 C 
BRANCH  47  50
HETATM   50  C13 LBM A 301     -15.016   3.049 -16.596  0.61 16.17     0.307 C 
BRANCH  50  51
HETATM   51  C4  LBM A 301     -14.324   4.038 -17.495  0.61 17.66    -0.045 C 
HETATM   52  C3  LBM A 301     -15.181   5.084 -18.163  0.61 21.67     0.037 C 
HETATM   53  C2  LBM A 301     -14.451   5.636 -19.379  0.61 21.85     0.013 C 
HETATM   54  C1  LBM A 301     -13.032   6.096 -19.029  0.61 18.51    -0.043 C 
HETATM   55  C   LBM A 301     -12.377   6.743 -20.249  0.61 25.87     0.015 C 
HETATM   56  C44 LBM A 301     -13.073   7.104 -17.884  0.61 13.59     0.015 C 
HETATM   57  C6  LBM A 301     -12.220   4.870 -18.604  0.61 16.31     0.048 C 
HETATM   58  C5  LBM A 301     -12.985   3.894 -17.766  0.61 17.48    -0.043 C 
BRANCH  58  59
HETATM   59  C7  LBM A 301     -12.176   2.749 -17.301  0.61 14.42    -0.029 A 
HETATM   60  C12 LBM A 301     -12.068   1.601 -18.086  0.61 15.00     0.013 A 
HETATM   61  C11 LBM A 301     -11.257   0.563 -17.688  0.61 14.69     0.024 A 
HETATM   62  C10 LBM A 301     -10.578   0.631 -16.479  0.61 16.38     0.034 A 
HETATM   63  C9  LBM A 301     -10.710   1.751 -15.672  0.61 12.57     0.024 A 
HETATM   64 CL   LBM A 301      -9.620  -0.707 -15.950  0.61 24.14    -0.084 Cl
HETATM   65  C8  LBM A 301     -11.499   2.799 -16.084  0.61 15.30     0.013 A 
ENDBRANCH  58  59
ENDBRANCH  50  51
ENDBRANCH  47  50
ENDBRANCH   5  44
TORSDOF 13
