REMARK  3 active torsions:
REMARK  status: ('A' for Active; 'I' for Inactive)
REMARK    1  A    between atoms: C8_5  and  C16_13 
REMARK    2  A    between atoms: C19_14  and  C17_22 
REMARK    3  A    between atoms: N1_18  and  C17_22 
ROOT
ATOM      1  C1  LOD A 401     -11.898  10.469 -16.008  1.00  0.00     0.024 A 
ATOM      2  C2  LOD A 401     -10.607  10.628 -16.543  1.00  0.00     0.034 A 
ATOM      3  C3  LOD A 401     -10.288  10.338 -17.877  1.00  0.00     0.031 A 
ATOM      4  C7  LOD A 401     -17.274   6.660 -20.203  1.00  0.00     0.050 A 
ATOM      5  C8  LOD A 401     -18.633   6.890 -19.953  1.00  0.00     0.043 A 
ATOM      6  C9  LOD A 401     -19.033   8.011 -19.194  1.00  0.00     0.021 A 
ATOM      7  C10 LOD A 401     -18.048   8.886 -18.705  1.00  0.00     0.040 A 
ATOM      8  C11 LOD A 401     -14.841  10.044 -19.470  1.00  0.00     0.192 C 
ATOM      9  C12 LOD A 401     -13.872   7.782 -19.012  1.00  0.00     0.139 C 
ATOM     10  C13 LOD A 401     -16.262   7.519 -19.711  1.00  0.00     0.065 A 
ATOM     11  C14 LOD A 401     -16.678   8.663 -18.961  1.00  0.00     0.095 A 
ATOM     12  C15 LOD A 401     -13.541   9.215 -19.293  1.00  0.00     0.026 C 
ATOM     13  C22 LOD A 401     -11.195   9.486 -20.128  1.00  0.00     0.040 C 
ATOM     14  N1  LOD A 401     -14.915   7.178 -19.848  1.00  0.00    -0.377 N 
ATOM     15  O1  LOD A 401     -15.788   9.632 -18.486  1.00  0.00    -0.348 OA
ATOM     16  C4  LOD A 401     -11.319   9.878 -18.692  1.00  0.00    -0.049 A 
ATOM     17  C5  LOD A 401     -12.613   9.712 -18.216  1.00  0.00    -0.039 A 
ATOM     18  C6  LOD A 401     -12.920  10.003 -16.869  1.00  0.00     0.010 A 
ATOM     19 CL1  LOD A 401      -9.371  11.248 -15.523  1.00  0.00    -0.084 Cl
ATOM     20  C23 LOD A 401     -12.672   9.266 -20.563  1.00  0.00     0.023 C 
ENDROOT
BRANCH  14  21
ATOM     21  C17 LOD A 401     -14.441   6.115 -20.751  1.00  0.00     0.127 C 
BRANCH  21  22
ATOM     22  C19 LOD A 401     -14.642   4.745 -20.032  1.00  0.00     0.003 C 
ATOM     23  C20 LOD A 401     -14.298   3.438 -20.787  1.00  0.00     0.006 C 
ATOM     24  C21 LOD A 401     -13.781   2.836 -19.457  1.00  0.00     0.001 C 
ATOM     25  C18 LOD A 401     -13.730   4.286 -18.875  1.00  0.00     0.006 C 
ENDBRANCH  21  22
ENDBRANCH  14  21
BRANCH   5  26
ATOM     26  C16 LOD A 401     -19.683   6.002 -20.456  1.00  0.00     0.209 C 
ATOM     27  O3  LOD A 401     -19.330   5.108 -21.369  1.00  0.00    -0.644 OA
ATOM     28  O2  LOD A 401     -20.798   6.091 -20.063  1.00  0.00    -0.644 OA
ENDBRANCH   5  26
TORSDOF 3
