REMARK  5 active torsions:
REMARK  status: ('A' for Active; 'I' for Inactive)
REMARK    1  A    between atoms: C_7  and  N_38 
REMARK    2  A    between atoms: C_9  and  N_30 
REMARK    3  A    between atoms: N_10  and  C_15 
REMARK    4  A    between atoms: C_13  and  N_30 
REMARK    5  A    between atoms: C_17  and  C_18 
ROOT
HETATM    1  C   N1J A 401      24.955  34.743  -9.583  1.00  0.00     0.684 A 
HETATM    2  C   N1J A 401      26.137  33.256  -8.287  1.00  0.00     0.150 A 
HETATM    3  C   N1J A 401      25.912  34.040  -7.171  1.00  0.00     0.160 A 
HETATM    4  C   N1J A 401      25.164  35.227  -7.312  1.00  0.00     0.102 A 
HETATM    5  F   N1J A 401      26.417  33.625  -5.989  1.00  0.00    -0.202 F 
HETATM    6  N   N1J A 401      25.657  33.630  -9.456  1.00  0.00    -0.199 N 
ATOM      7  HN  N1J A 401      25.830  33.050 -10.277  1.00  0.00     0.183 HD
HETATM    8  N   N1J A 401      24.718  35.527  -8.539  1.00  0.00    -0.188 N 
ATOM      9  HN  N1J A 401      24.180  36.383  -8.675  1.00  0.00     0.184 HD
ENDROOT
BRANCH   1  10
HETATM   10  N   N1J A 401      24.504  35.037 -10.869  1.00  0.00    -0.176 N 
HETATM   11  H   N1J A 401      24.970  34.574 -11.602  1.00  0.00     0.186 HD
BRANCH  10  12
HETATM   12  C   N1J A 401      23.473  35.906 -11.254  1.00  0.00     0.120 A 
HETATM   13  C   N1J A 401      22.472  36.332 -10.383  1.00  0.00     0.051 A 
HETATM   14  C   N1J A 401      21.487  37.192 -10.850  1.00  0.00     0.029 A 
HETATM   15  C   N1J A 401      21.530  37.605 -12.183  1.00  0.00     0.026 A 
HETATM   16  C   N1J A 401      22.553  37.136 -12.991  1.00  0.00     0.113 A 
HETATM   17  N   N1J A 401      23.472  36.321 -12.511  1.00  0.00    -0.350 N 
ATOM     18  HN  N1J A 401      24.212  35.997 -13.134  1.00  0.00     0.166 HD
BRANCH  15  19
HETATM   19  N   N1J A 401      20.564  38.471 -12.719  1.00  0.00    -0.281 NA
HETATM   20  C   N1J A 401      21.115  39.237 -13.864  1.00  0.00     0.109 C 
HETATM   21  C   N1J A 401      20.265  40.381 -13.321  1.00  0.00     0.032 C 
HETATM   22  C   N1J A 401      20.612  41.842 -13.581  1.00  0.00     0.248 C 
HETATM   23  C   N1J A 401      18.893  40.687 -13.908  1.00  0.00     0.248 C 
HETATM   24  C   N1J A 401      20.434  39.730 -11.947  1.00  0.00     0.109 C 
HETATM   25  N   N1J A 401      19.186  42.133 -13.838  1.00  0.00    -0.070 N 
HETATM   26  H   N1J A 401      18.657  42.740 -13.212  1.00  0.00     0.279 HD
BRANCH  25  27
HETATM   27  C   N1J A 401      19.013  42.768 -15.154  1.00  0.00     0.230 C 
HETATM   28  C   N1J A 401      17.551  42.669 -15.595  1.00  0.00     0.034 C 
ENDBRANCH  25  27
ENDBRANCH  15  19
ENDBRANCH  10  12
ENDBRANCH   1  10
BRANCH   4  29
HETATM   29  C   N1J A 401      24.891  36.112  -6.132  1.00  0.00     0.036 A 
HETATM   30  C   N1J A 401      24.065  37.213  -6.041  1.00  0.00     0.046 A 
HETATM   31  C   N1J A 401      23.205  37.799  -7.146  1.00  0.00     0.034 C 
HETATM   32  N   N1J A 401      24.145  37.685  -4.771  1.00  0.00    -0.295 N 
HETATM   33  C   N1J A 401      23.727  39.168  -7.599  1.00  0.00     0.016 C 
HETATM   34  C   N1J A 401      21.740  37.904  -6.700  1.00  0.00     0.010 C 
HETATM   35  C   N1J A 401      21.536  39.077  -5.744  1.00  0.00     0.002 C 
HETATM   36  C   N1J A 401      21.933  38.668  -4.328  1.00  0.00     0.022 C 
HETATM   37  C   N1J A 401      23.448  38.840  -4.188  1.00  0.00     0.149 C 
HETATM   38  N   N1J A 401      25.035  36.879  -4.060  1.00  0.00    -0.309 N 
HETATM   39  C   N1J A 401      25.478  35.951  -4.857  1.00  0.00     0.123 A 
ATOM     40  HN  N1J A 401      25.294  36.997  -3.081  1.00  0.00     0.186 HD
ENDBRANCH   4  29
TORSDOF 5
