REMARK  5 active torsions:
REMARK  status: ('A' for Active; 'I' for Inactive)
REMARK    1  A    between atoms: C_5  and  C_6 
REMARK    2  A    between atoms: C_6  and  C_7 
REMARK    3  A    between atoms: C_7  and  O_18 
REMARK    4  A    between atoms: N_11  and  C_16 
REMARK    5  A    between atoms: C_14  and  C_17 
ROOT
HETATM    1  C   HJK A 301      -0.291  -4.508 -26.260  1.00  0.00     0.106 A 
HETATM    2  C   HJK A 301      -1.093  -2.599 -25.729  1.00  0.00     0.182 A 
HETATM    3  C   HJK A 301       0.320  -3.548 -27.076  1.00  0.00     0.151 A 
HETATM    4  N   HJK A 301       0.945  -6.130 -27.438  1.00  0.00    -0.189 N 
ATOM      5  HN  HJK A 301       1.198  -7.097 -27.639  1.00  0.00     0.184 HD
HETATM    6  N   HJK A 301      -1.171  -3.869 -25.396  1.00  0.00    -0.347 N 
HETATM    7  C   HJK A 301       1.489  -5.127 -28.162  1.00  0.00     0.678 A 
HETATM    8  C   HJK A 301       0.072  -5.857 -26.455  1.00  0.00     0.090 A 
HETATM    9  N   HJK A 301      -0.195  -2.341 -26.721  1.00  0.00    -0.336 N 
ATOM     10  HN  HJK A 301       0.042  -1.431 -27.116  1.00  0.00     0.168 HD
HETATM   11  N   HJK A 301       1.216  -3.806 -28.029  1.00  0.00    -0.174 N 
ATOM     12  HN  HJK A 301       1.652  -3.082 -28.600  1.00  0.00     0.186 HD
HETATM   13  H   HJK A 301      -1.728  -4.275 -24.693  1.00  0.00     0.167 HD
ENDROOT
BRANCH   8  14
HETATM   14  C   HJK A 301      -0.413  -7.065 -25.753  1.00  0.00    -0.006 C 
HETATM   15  C   HJK A 301      -0.594  -8.275 -26.420  1.00  0.00     0.014 C 
HETATM   16  C   HJK A 301      -1.049  -9.391 -25.728  1.00  0.00     0.001 C 
HETATM   17  C   HJK A 301      -1.267  -9.299 -24.363  1.00  0.00     0.007 C 
HETATM   18  C   HJK A 301      -1.181  -8.086 -23.691  1.00  0.00    -0.048 C 
HETATM   19  C   HJK A 301      -0.693  -7.008 -24.390  1.00  0.00     0.021 C 
BRANCH  18  20
HETATM   20  C   HJK A 301      -1.406  -7.947 -22.191  1.00  0.00     0.148 C 
BRANCH  20  21
HETATM   21  C   HJK A 301      -2.448  -8.826 -21.487  1.00  0.00     0.143 C 
HETATM   22  O   HJK A 301      -3.500  -9.113 -22.122  1.00  0.00    -0.650 OA
BRANCH  21  23
HETATM   23  O   HJK A 301      -2.325  -9.003 -20.298  1.00  0.00    -0.776 OA
HETATM   24  H   HJK A 301      -1.523  -8.774 -19.871  1.00  0.00     0.167 HD
ENDBRANCH  21  23
ENDBRANCH  20  21
ENDBRANCH  18  20
ENDBRANCH   8  14
BRANCH   7  25
HETATM   25  N   HJK A 301       2.345  -5.512 -29.120  1.00  0.00    -0.234 N 
HETATM   26  H   HJK A 301       2.558  -6.466 -29.235  1.00  0.00     0.174 HD
HETATM   27  H   HJK A 301       2.760  -4.840 -29.708  1.00  0.00     0.174 HD
ENDBRANCH   7  25
TORSDOF 5
