REMARK  10 active torsions:
REMARK  status: ('A' for Active; 'I' for Inactive)
REMARK    1  A    between atoms: C7_4  and  C10_7 
REMARK    2  A    between atoms: C10_7  and  C14_11 
REMARK    3  A    between atoms: C14_11  and  C18_27 
REMARK    4  A    between atoms: C21_16  and  N26_19 
REMARK    5  A    between atoms: C21_16  and  C17_26 
REMARK    6  A    between atoms: C22_17  and  C18_27 
REMARK    7  A    between atoms: C22_17  and  N27_30 
REMARK    8  A    between atoms: C24_18  and  C29_32 
REMARK    9  A    between atoms: C31_21  and  N27_30 
REMARK   10  A    between atoms: C32_22  and  C29_32 
ROOT
ATOM      1  N26 KWE A 501      -7.143 -15.784 -17.081  1.00  0.00    -0.275 N 
ATOM      2  C30 KWE A 501      -7.079 -14.461 -17.269  1.00  0.00     0.259 A 
ATOM      3  C31 KWE A 501      -8.835 -14.741 -15.969  1.00  0.00     0.109 A 
ATOM      4  C32 KWE A 501      -8.146 -13.791 -16.617  1.00  0.00     0.046 A 
ATOM      5  O23 KWE A 501      -8.587 -17.177 -15.988  1.00  0.00    -0.265 OA
ATOM      6  O25 KWE A 501      -6.168 -13.944 -17.922  1.00  0.00    -0.267 OA
ATOM      7  C28 KWE A 501      -8.229 -16.036 -16.309  1.00  0.00     0.278 A 
ENDROOT
BRANCH   3   8
ATOM      8  N27 KWE A 501      -9.896 -14.726 -15.164  1.00  0.00    -0.385 N 
ATOM      9  H   KWE A 501     -10.252 -15.613 -14.930  1.00  0.00     0.159 HD
BRANCH   8  10
ATOM     10  C22 KWE A 501     -10.617 -13.594 -14.571  1.00  0.00     0.120 C 
BRANCH  10  11
ATOM     11  C18 KWE A 501     -11.727 -13.094 -15.417  1.00  0.00     0.020 C 
BRANCH  11  12
ATOM     12  C14 KWE A 501     -12.498 -12.038 -14.632  1.00  0.00     0.006 C 
BRANCH  12  13
ATOM     13  C10 KWE A 501     -13.603 -11.497 -15.588  1.00  0.00     0.038 C 
BRANCH  13  14
ATOM     14  C7  KWE A 501     -14.595 -10.647 -14.848  1.00  0.00    -0.058 A 
ATOM     15  C4  KWE A 501     -14.342  -9.299 -14.752  1.00  0.00     0.007 A 
ATOM     16  C2  KWE A 501     -15.251  -8.497 -14.051  1.00  0.00     0.001 A 
ATOM     17  C1  KWE A 501     -16.380  -9.063 -13.481  1.00  0.00     0.000 A 
ATOM     18  C3  KWE A 501     -16.622 -10.442 -13.581  1.00  0.00     0.001 A 
ATOM     19  C5  KWE A 501     -15.721 -11.196 -14.293  1.00  0.00     0.007 A 
ENDBRANCH  13  14
ENDBRANCH  12  13
ENDBRANCH  11  12
ENDBRANCH  10  11
ENDBRANCH   8  10
ENDBRANCH   3   8
BRANCH   4  20
ATOM     20  C29 KWE A 501      -8.442 -12.322 -16.708  1.00  0.00     0.085 C 
BRANCH  20  21
ATOM     21  C24 KWE A 501      -7.971 -11.408 -15.603  1.00  0.00    -0.054 A 
ATOM     22  C19 KWE A 501      -6.718 -11.530 -15.085  1.00  0.00     0.007 A 
ATOM     23  C15 KWE A 501      -6.339 -10.690 -13.989  1.00  0.00     0.001 A 
ATOM     24  C11 KWE A 501      -7.215  -9.765 -13.493  1.00  0.00     0.000 A 
ATOM     25  C16 KWE A 501      -8.473  -9.696 -14.026  1.00  0.00     0.001 A 
ATOM     26  C20 KWE A 501      -8.816 -10.475 -15.100  1.00  0.00     0.007 A 
ENDBRANCH  20  21
ENDBRANCH   4  20
BRANCH   1  27
ATOM     27  C21 KWE A 501      -6.199 -16.776 -17.671  1.00  0.00     0.174 C 
BRANCH  27  28
ATOM     28  C17 KWE A 501      -4.917 -16.975 -16.941  1.00  0.00    -0.040 A 
ATOM     29  C12 KWE A 501      -4.885 -17.549 -15.696  1.00  0.00     0.009 A 
ATOM     30  C8  KWE A 501      -3.635 -17.712 -15.060  1.00  0.00     0.001 A 
ATOM     31  C6  KWE A 501      -2.497 -17.318 -15.782  1.00  0.00     0.000 A 
ATOM     32  C9  KWE A 501      -2.564 -16.705 -17.018  1.00  0.00     0.001 A 
ATOM     33  C13 KWE A 501      -3.797 -16.537 -17.634  1.00  0.00     0.009 A 
ENDBRANCH  27  28
ENDBRANCH   1  27
TORSDOF 10
