REMARK  4 active torsions:
REMARK  status: ('A' for Active; 'I' for Inactive)
REMARK       I    between atoms: C_1  and  N_13 
REMARK    1  A    between atoms: C_1  and  C_17 
REMARK    2  A    between atoms: C_2  and  N_13 
REMARK    3  A    between atoms: C_8  and  N_24 
REMARK    4  A    between atoms: N_18  and  C_25 
ROOT
ATOM      1  C   HJ0 A1101       8.281   1.843  -2.941  1.00  0.00     0.111 A 
ATOM      2  C   HJ0 A1101       4.374   3.162  -1.186  1.00  0.00     0.183 A 
ATOM      3  C   HJ0 A1101       5.162   0.971  -1.189  1.00  0.00     0.115 A 
ATOM      4  C   HJ0 A1101       6.323   1.430  -1.867  1.00  0.00     0.069 A 
ATOM      5  C   HJ0 A1101       7.566   0.827  -2.375  1.00  0.00     0.065 A 
ATOM      6  N   HJ0 A1101       7.614   3.010  -2.802  1.00  0.00    -0.332 N 
ATOM      7  C   HJ0 A1101       6.429   2.811  -2.165  1.00  0.00     0.124 A 
ATOM      8  N   HJ0 A1101       5.436   3.640  -1.807  1.00  0.00    -0.338 N 
ATOM      9  HN  HJ0 A1101       5.502   4.637  -2.014  1.00  0.00     0.168 HD
ATOM     10  N   HJ0 A1101       4.225   1.872  -0.864  1.00  0.00    -0.338 N 
ATOM     11  HN  HJ0 A1101       3.388   1.571  -0.365  1.00  0.00     0.168 HD
ENDROOT
BRANCH   5  12
ATOM     12  C   HJ0 A1101       7.915  -0.591  -2.388  1.00  0.00     0.259 C 
ATOM     13  N   HJ0 A1101       9.171  -0.996  -2.675  1.00  0.00    -0.308 N 
ATOM     14  H   HJ0 A1101       9.859  -0.305  -2.810  1.00  0.00     0.170 HD
ATOM     15  O   HJ0 A1101       7.004  -1.386  -2.213  1.00  0.00    -0.267 OA
BRANCH  13  16
ATOM     16  C   HJ0 A1101       9.550  -2.318  -2.791  1.00  0.00     0.124 A 
ATOM     17  C   HJ0 A1101       8.865  -3.451  -3.146  1.00  0.00     0.076 A 
ATOM     18  C   HJ0 A1101       9.777  -4.501  -3.152  1.00  0.00     0.025 A 
ATOM     19  C   HJ0 A1101       9.503  -5.944  -3.474  1.00  0.00     0.070 C 
ATOM     20  N   HJ0 A1101      10.943  -4.004  -2.848  1.00  0.00    -0.304 N 
ATOM     21  N   HJ0 A1101      10.822  -2.645  -2.636  1.00  0.00    -0.285 N 
ATOM     22  H   HJ0 A1101      11.780  -4.518  -2.780  1.00  0.00     0.186 HD
ATOM     23  HN  HJ0 A1101      11.581  -2.005  -2.401  1.00  0.00     0.188 HD
ENDBRANCH  13  16
ENDBRANCH   5  12
BRANCH   6  24
ATOM     24  C   HJ0 A1101       8.116   4.292  -3.275  1.00  0.00     0.035 A 
ATOM     25  C   HJ0 A1101       8.717   5.196  -2.206  1.00  0.00     0.039 C 
ATOM     26  C   HJ0 A1101       8.773   4.334  -4.656  1.00  0.00     0.033 A 
ATOM     27  C   HJ0 A1101       7.382   4.926  -4.450  1.00  0.00     0.033 A 
ENDBRANCH   6  24
BRANCH   3  28
ATOM     28  N   HJ0 A1101       4.972  -0.344  -0.821  1.00  0.00    -0.385 N 
ATOM     29  H   HJ0 A1101       5.648  -1.022  -1.050  1.00  0.00     0.157 HD
ATOM     30  H   HJ0 A1101       4.160  -0.605  -0.329  1.00  0.00     0.157 HD
ENDBRANCH   3  28
TORSDOF 4
