REMARK  7 active torsions:
REMARK  status: ('A' for Active; 'I' for Inactive)
REMARK    1  A    between atoms: C4_3  and  C7_5 
REMARK    2  A    between atoms: C8_6  and  C9_24 
REMARK    3  A    between atoms: C15_9  and  C26_33 
REMARK    4  A    between atoms: C17_10  and  N16_28 
REMARK    5  A    between atoms: C30_15  and  C32_16 
REMARK       I    between atoms: C30_15  and  N29_35 
REMARK    6  A    between atoms: C40_21  and  N41_40 
REMARK    7  A    between atoms: C26_33  and  N29_35 
ROOT
HETATM    1  C1  V7Y A1201      53.282  21.095  38.603  1.00116.81     0.179 C 
HETATM    2  C3  V7Y A1201      51.745  19.263  38.070  1.00113.78     0.133 A 
HETATM    3  C4  V7Y A1201      51.259  18.149  38.708  1.00110.37     0.054 A 
HETATM    4  C5  V7Y A1201      51.817  18.116  39.978  1.00109.86     0.160 A 
HETATM    5  N2  V7Y A1201      52.553  19.868  38.904  1.00113.69    -0.284 N 
HETATM    6  N6  V7Y A1201      52.618  19.184  40.090  1.00110.86    -0.184 NA
ENDROOT
BRANCH   3   7
HETATM    7  C7  V7Y A1201      50.283  17.118  38.126  1.00108.68    -0.058 C 
HETATM    8  C8  V7Y A1201      49.503  16.323  37.722  1.00104.48    -0.060 C 
BRANCH   8   9
HETATM    9  C9  V7Y A1201      48.471  15.306  37.245  1.00100.30     0.034 A 
HETATM   10  C10 V7Y A1201      48.141  14.233  38.058  1.00 95.47     0.022 A 
HETATM   11  C11 V7Y A1201      47.204  13.277  37.648  1.00 97.01     0.002 A 
HETATM   12  C12 V7Y A1201      46.589  13.402  36.414  1.00 96.01     0.012 A 
HETATM   13  C13 V7Y A1201      46.936  14.504  35.603  1.00 92.64    -0.017 A 
HETATM   14  C14 V7Y A1201      46.286  14.667  34.258  1.00 84.33     0.040 A 
HETATM   15  C25 V7Y A1201      47.857  15.449  35.994  1.00 97.90     0.061 A 
HETATM   16  C15 V7Y A1201      46.676  15.837  33.412  1.00 85.34     0.043 A 
HETATM   17  N16 V7Y A1201      47.624  16.844  33.817  1.00 84.94    -0.280 N 
HETATM   18  C23 V7Y A1201      48.250  16.678  35.097  1.00 94.37     0.265 A 
HETATM   19  O24 V7Y A1201      49.035  17.500  35.408  1.00 99.46    -0.267 OA
BRANCH  16  20
HETATM   20  C26 V7Y A1201      45.913  15.867  32.124  1.00 84.13     0.131 C 
HETATM   21  C28 V7Y A1201      46.314  16.796  30.976  1.00 94.29     0.039 C 
BRANCH  20  22
HETATM   22  N29 V7Y A1201      45.844  14.518  31.550  1.00 76.82    -0.347 N 
HETATM   23  C30 V7Y A1201      46.942  13.976  30.735  1.00 76.67     0.260 C 
HETATM   24  O31 V7Y A1201      47.891  14.648  30.545  1.00 80.93    -0.267 OA
HETATM   25  H19 V7Y A1201      45.147  14.034  31.692  1.00 92.19     0.163 HD
BRANCH  23  26
HETATM   26  C32 V7Y A1201      46.917  12.616  30.005  1.00 75.68     0.124 A 
HETATM   27  C33 V7Y A1201      45.745  11.910  29.663  1.00 70.83     0.168 A 
HETATM   28  N34 V7Y A1201      44.406  12.152  29.949  1.00 67.79    -0.240 NA
HETATM   29  N38 V7Y A1201      46.084  10.833  28.989  1.00 71.57    -0.247 N 
HETATM   30  C35 V7Y A1201      43.468  11.301  29.546  1.00 69.13     0.120 A 
HETATM   31  C36 V7Y A1201      43.823  10.186  28.849  1.00 72.05     0.038 A 
HETATM   32  C37 V7Y A1201      45.132   9.953  28.570  1.00 71.11     0.120 A 
HETATM   33  N39 V7Y A1201      47.484  10.808  28.821  1.00 76.12    -0.277 N 
HETATM   34  C40 V7Y A1201      47.998  11.910  29.421  1.00 76.80     0.134 A 
HETATM   35  H25 V7Y A1201      48.043  10.052  28.310  1.00 95.53     0.189 HD
BRANCH  34  36
HETATM   36  N41 V7Y A1201      49.422  12.246  29.461  1.00 77.88    -0.383 N 
HETATM   37  H24 V7Y A1201      50.028  11.639  29.352  1.00 93.46     0.157 HD
HETATM   38  H23 V7Y A1201      49.667  13.062  29.575  1.00 93.46     0.157 HD
ENDBRANCH  34  36
ENDBRANCH  23  26
ENDBRANCH  20  22
ENDBRANCH  16  20
BRANCH  17  39
HETATM   39  C17 V7Y A1201      47.969  17.954  32.955  1.00 78.93     0.042 A 
HETATM   40  C18 V7Y A1201      49.082  17.834  32.141  1.00 76.09     0.030 A 
HETATM   41  C19 V7Y A1201      49.399  18.846  31.251  1.00 76.66     0.002 A 
HETATM   42  C20 V7Y A1201      48.593  19.971  31.173  1.00 80.07     0.000 A 
HETATM   43  C21 V7Y A1201      47.466  20.082  31.971  1.00 80.86     0.002 A 
HETATM   44  C22 V7Y A1201      47.151  19.076  32.864  1.00 80.05     0.030 A 
ENDBRANCH  17  39
ENDBRANCH   8   9
ENDBRANCH   3   7
TORSDOF 7
