REMARK  1 active torsions:
REMARK  status: ('A' for Active; 'I' for Inactive)
REMARK    1  A    between atoms: C1_1  and  N10_8 
ROOT
HETATM    1  C1  42C A 401      -6.975  19.387  -5.502  1.00  0.00     0.134 A 
HETATM    2  C2  42C A 401      -7.487  18.563  -4.489  1.00  0.00     0.122 A 
HETATM    3  C3  42C A 401      -7.458  19.096  -3.143  1.00  0.00     0.138 A 
HETATM    4  C5  42C A 401      -6.521  20.979  -3.895  1.00  0.00     0.183 A 
HETATM    5  C8  42C A 401      -8.344  17.102  -3.031  1.00  0.00     0.182 A 
HETATM    6  N6  42C A 401      -6.482  20.611  -5.213  1.00  0.00    -0.337 N 
ATOM      7  H6  42C A 401      -6.103  21.225  -5.934  1.00  0.00     0.168 HD
HETATM    8  N4  42C A 401      -6.972  20.323  -2.815  1.00  0.00    -0.337 N 
ATOM      9  H4  42C A 401      -6.953  20.698  -1.867  1.00  0.00     0.168 HD
HETATM   10  N9  42C A 401      -8.004  18.154  -2.249  1.00  0.00    -0.337 N 
HETATM   11  N7  42C A 401      -8.055  17.289  -4.387  1.00  0.00    -0.346 N 
ATOM     12  H7  42C A 401      -8.224  16.630  -5.147  1.00  0.00     0.167 HD
HETATM   13  H   42C A 401      -8.114  18.241  -1.275  1.00  0.00     0.168 HD
ENDROOT
BRANCH   1  14
HETATM   14  N10 42C A 401      -6.957  18.949  -6.867  1.00  0.00    -0.374 N 
HETATM   15  C11 42C A 401      -5.782  19.288  -7.702  1.00  0.00     0.150 C 
HETATM   16  C12 42C A 401      -8.154  18.212  -7.350  1.00  0.00     0.150 C 
ENDBRANCH   1  14
TORSDOF 1
