REMARK  10 active torsions:
REMARK  status: ('A' for Active; 'I' for Inactive)
REMARK    1  A    between atoms: C1_1  and  O7_8 
REMARK    2  A    between atoms: C2_2  and  N8_9 
REMARK    3  A    between atoms: C5_6  and  C23_26 
REMARK    4  A    between atoms: O7_8  and  C9_10 
REMARK    5  A    between atoms: C9_10  and  C10_11 
REMARK    6  A    between atoms: C12_13  and  N18_19 
REMARK    7  A    between atoms: C26_30  and  C29_33 
REMARK    8  A    between atoms: C29_33  and  C30_34 
REMARK    9  A    between atoms: C29_33  and  O31_35 
REMARK   10  A    between atoms: C30_34  and  O33_37 
ROOT
ATOM      1  C1  AWJ A2301      39.137  -7.658  16.306  1.00  0.00     0.114 A 
ATOM      2  C2  AWJ A2301      40.038  -7.197  15.329  1.00  0.00     0.132 A 
ATOM      3  N3  AWJ A2301      41.350  -7.500  15.381  1.00  0.00    -0.350 N 
ATOM      4  H3  AWJ A2301      41.990  -7.170  14.659  1.00  0.00     0.166 HD
ATOM      5  C4  AWJ A2301      41.794  -8.242  16.399  1.00  0.00     0.102 A 
ATOM      6  C5  AWJ A2301      40.978  -8.740  17.401  1.00  0.00     0.001 A 
ATOM      7  C6  AWJ A2301      39.622  -8.430  17.342  1.00  0.00     0.055 A 
ENDROOT
BRANCH   1   8
ATOM      8  O7  AWJ A2301      37.838  -7.207  16.227  1.00  0.00    -0.338 OA
BRANCH   8   9
ATOM      9  C9  AWJ A2301      36.848  -7.790  17.087  1.00  0.00     0.160 C 
ATOM     10  C11 AWJ A2301      35.486  -7.677  16.431  1.00  0.00     0.045 C 
BRANCH   9  11
ATOM     11  C10 AWJ A2301      36.896  -7.129  18.455  1.00  0.00     0.004 A 
ATOM     12  C16 AWJ A2301      37.083  -5.749  18.465  1.00  0.00     0.054 A 
ATOM     13  C15 AWJ A2301      37.179  -5.102  19.673  1.00  0.00     0.117 A 
ATOM     14  C14 AWJ A2301      37.106  -5.743  20.880  1.00  0.00     0.044 A 
ATOM     15  F17 AWJ A2301      37.320  -3.751  19.663  1.00  0.00    -0.206 F 
ATOM     16  C13 AWJ A2301      36.938  -7.116  20.884  1.00  0.00     0.037 A 
ATOM     17  C12 AWJ A2301      36.864  -7.815  19.680  1.00  0.00     0.084 A 
BRANCH  17  18
ATOM     18  N18 AWJ A2301      36.674  -9.230  19.736  1.00  0.00    -0.197 N 
ATOM     19  N19 AWJ A2301      35.705  -9.857  19.058  1.00  0.00    -0.289 N 
ATOM     20  C20 AWJ A2301      35.851 -11.126  19.415  1.00  0.00     0.127 A 
ATOM     21  H19 AWJ A2301      35.019  -9.455  18.420  1.00  0.00     0.188 HD
ATOM     22  C21 AWJ A2301      36.873 -11.222  20.344  1.00  0.00     0.127 A 
ATOM     23  N22 AWJ A2301      37.367 -10.012  20.571  1.00  0.00    -0.289 N 
ATOM     24  H22 AWJ A2301      38.101  -9.742  21.226  1.00  0.00     0.188 HD
ENDBRANCH  17  18
ENDBRANCH   9  11
ENDBRANCH   8   9
ENDBRANCH   1   8
BRANCH   2  25
ATOM     25  N8  AWJ A2301      39.628  -6.399  14.341  1.00  0.00    -0.383 N 
ATOM     26  H   AWJ A2301      40.270  -6.084  13.664  1.00  0.00     0.157 HD
ATOM     27  H   AWJ A2301      38.684  -6.125  14.289  1.00  0.00     0.157 HD
ENDBRANCH   2  25
BRANCH   6  28
ATOM     28  C23 AWJ A2301      41.497  -9.523  18.540  1.00  0.00     0.040 A 
ATOM     29  C24 AWJ A2301      42.472 -10.475  18.673  1.00  0.00     0.024 A 
ATOM     30  C28 AWJ A2301      43.398 -10.969  17.610  1.00  0.00     0.069 C 
ATOM     31  N25 AWJ A2301      42.620 -10.988  19.949  1.00  0.00    -0.354 N 
ATOM     32  C26 AWJ A2301      41.791 -10.429  20.763  1.00  0.00     0.088 A 
ATOM     33  H25 AWJ A2301      43.292 -11.709  20.210  1.00  0.00     0.166 HD
ATOM     34  S27 AWJ A2301      40.744  -9.246  20.079  1.00  0.00    -0.071 SA
BRANCH  32  35
ATOM     35  C29 AWJ A2301      41.778 -10.865  22.233  1.00  0.00     0.124 C 
ATOM     36  C32 AWJ A2301      41.246 -12.290  22.340  1.00  0.00     0.055 C 
BRANCH  35  37
ATOM     37  C30 AWJ A2301      43.187 -10.853  22.849  1.00  0.00     0.208 C 
BRANCH  37  38
ATOM     38  O33 AWJ A2301      43.687  -9.552  23.139  1.00  0.00    -0.397 OA
ATOM     39  H   AWJ A2301      43.766  -9.045  22.316  1.00  0.00     0.209 HD
ENDBRANCH  37  38
ENDBRANCH  35  37
BRANCH  35  40
ATOM     40  O31 AWJ A2301      40.931  -9.983  22.978  1.00  0.00    -0.381 OA
ATOM     41  H   AWJ A2301      40.041  -9.987  22.593  1.00  0.00     0.211 HD
ENDBRANCH  35  40
ENDBRANCH  32  35
ENDBRANCH   6  28
TORSDOF 10
