REMARK  6 active torsions:
REMARK  status: ('A' for Active; 'I' for Inactive)
REMARK    1  A    between atoms: C5_2  and  N7_40 
REMARK    2  A    between atoms: C8_4  and  C1_11 
REMARK    3  A    between atoms: C13_5  and  C12_12 
REMARK    4  A    between atoms: C20_8  and  N24_36 
REMARK    5  A    between atoms: C3_20  and  N31_38 
REMARK    6  A    between atoms: C39_28  and  C40_29 
REMARK       I    between atoms: C39_28  and  N28_37 
ROOT
ATOM      1  C13 LXD A 203      18.707  -8.158  22.082  1.00  0.00     0.053 C 
ATOM      2  C15 LXD A 203      20.478  -6.302  22.089  1.00  0.00     0.007 C 
ATOM      3  C17 LXD A 203      20.435  -8.030  23.885  1.00  0.00    -0.006 A 
ATOM      4  C20 LXD A 203      20.172 -10.268  24.920  1.00  0.00     0.089 A 
ATOM      5  C22 LXD A 203      18.377 -11.055  23.439  1.00  0.00     0.103 C 
ATOM      6  C14 LXD A 203      20.876  -6.641  23.522  1.00  0.00     0.047 C 
ATOM      7  C16 LXD A 203      19.018  -6.657  21.832  1.00  0.00     0.023 C 
ATOM      8  C18 LXD A 203      19.474  -8.754  23.256  1.00  0.00    -0.005 A 
ATOM      9  C19 LXD A 203      19.319 -10.056  23.842  1.00  0.00     0.086 A 
ATOM     10  C25 LXD A 203      19.011  -8.988  20.819  1.00  0.00     0.029 C 
ATOM     11  N23 LXD A 203      17.653 -11.894  23.164  1.00  0.00    -0.191 NA
ATOM     12  S21 LXD A 203      21.185  -8.890  25.182  1.00  0.00    -0.075 SA
ENDROOT
BRANCH   4  13
ATOM     13  N24 LXD A 203      20.300 -11.372  25.677  1.00  0.00    -0.392 N 
ATOM     14  H   LXD A 203      19.717 -12.149  25.517  1.00  0.00     0.156 HD
ATOM     15  H   LXD A 203      20.977 -11.403  26.391  1.00  0.00     0.156 HD
ENDBRANCH   4  13
BRANCH   1  16
ATOM     16  C12 LXD A 203      17.244  -8.308  22.422  1.00  0.00     0.161 A 
ATOM     17  N9  LXD A 203      16.430  -9.041  21.754  1.00  0.00    -0.321 N 
ATOM     18  C8  LXD A 203      15.241  -8.913  22.421  1.00  0.00     0.154 A 
ATOM     19  H9  LXD A 203      16.624  -9.592  20.918  1.00  0.00     0.169 HD
ATOM     20  N10 LXD A 203      15.310  -8.151  23.482  1.00  0.00    -0.241 N 
ATOM     21  O11 LXD A 203      16.688  -7.731  23.492  1.00  0.00    -0.221 OA
ATOM     22  H10 LXD A 203      14.569  -7.912  24.141  1.00  0.00     0.196 HD
BRANCH  18  23
ATOM     23  C1  LXD A 203      14.002  -9.568  21.940  1.00  0.00     0.082 A 
ATOM     24  C6  LXD A 203      14.075 -10.577  20.972  1.00  0.00     0.063 A 
ATOM     25  C5  LXD A 203      12.893 -11.108  20.456  1.00  0.00     0.036 A 
ATOM     26  C4  LXD A 203      11.694 -10.621  20.968  1.00  0.00     0.077 A 
ATOM     27  C3  LXD A 203      11.700  -9.650  21.979  1.00  0.00     0.106 A 
ATOM     28  N2  LXD A 203      12.844  -9.102  22.437  1.00  0.00    -0.339 N 
ATOM     29  H2  LXD A 203      12.831  -8.360  23.136  1.00  0.00     0.167 HD
BRANCH  25  30
ATOM     30  N7  LXD A 203      12.911 -12.123  19.480  1.00  0.00    -0.378 N 
ATOM     31  C26 LXD A 203      11.681 -12.763  19.000  1.00  0.00     0.143 C 
ATOM     32  C27 LXD A 203      12.018 -14.002  18.177  1.00  0.00     0.146 C 
ATOM     33  N28 LXD A 203      12.779 -13.625  16.976  1.00  0.00    -0.346 N 
ATOM     34  C29 LXD A 203      13.776 -12.571  17.220  1.00  0.00     0.146 C 
ATOM     35  C39 LXD A 203      12.565 -14.248  15.789  1.00  0.00     0.242 C 
ATOM     36  C30 LXD A 203      14.105 -12.482  18.705  1.00  0.00     0.143 C 
ATOM     37  O41 LXD A 203      11.714 -15.133  15.681  1.00  0.00    -0.268 OA
BRANCH  35  38
ATOM     38  C40 LXD A 203      13.327 -13.793  14.596  1.00  0.00     0.064 C 
ATOM     39  C42 LXD A 203      12.763 -12.952  13.688  1.00  0.00     0.017 C 
ENDBRANCH  35  38
ENDBRANCH  25  30
BRANCH  27  40
ATOM     40  N31 LXD A 203      10.535  -9.176  22.516  1.00  0.00    -0.360 N 
ATOM     41  C32 LXD A 203       9.240  -9.668  22.025  1.00  0.00     0.152 C 
ATOM     42  C33 LXD A 203       8.287  -9.914  23.192  1.00  0.00     0.254 C 
ATOM     43  N34 LXD A 203       8.175  -8.694  24.048  1.00  0.00    -0.071 N 
ATOM     44  C35 LXD A 203       9.515  -8.315  24.608  1.00  0.00     0.259 C 
ATOM     45  C37 LXD A 203       7.173  -8.880  25.137  1.00  0.00     0.269 C 
ATOM     46  H   LXD A 203       7.846  -7.929  23.459  1.00  0.00     0.279 HD
ATOM     47  C36 LXD A 203      10.555  -8.047  23.466  1.00  0.00     0.107 C 
ATOM     48  C38 LXD A 203      10.336  -6.710  22.766  1.00  0.00     0.034 C 
ENDBRANCH  27  40
ENDBRANCH  18  23
ENDBRANCH   1  16
TORSDOF 6
