REMARK  5 active torsions:
REMARK  status: ('A' for Active; 'I' for Inactive)
REMARK    1  A    between atoms: C14_5  and  N17_32 
REMARK    2  A    between atoms: C21_8  and  N23_38 
REMARK    3  A    between atoms: C24_9  and  N20_35 
REMARK    4  A    between atoms: C18_11  and  N17_32 
REMARK    5  A    between atoms: C06_16  and  N04_31 
ROOT
ATOM      1  C21 Q8U A 901      19.578 -15.389  19.794  1.00  0.00     0.714 A 
ATOM      2  C18 Q8U A 901      21.173 -14.973  21.116  1.00  0.00     0.712 A 
ATOM      3  N19 Q8U A 901      20.331 -13.938  21.262  1.00  0.00    -0.108 N 
ATOM      4  H19 Q8U A 901      20.445 -13.127  21.870  1.00  0.00     0.207 HD
ATOM      5  N20 Q8U A 901      19.333 -14.193  20.456  1.00  0.00    -0.054 N 
ATOM      6  N22 Q8U A 901      20.726 -15.871  20.192  1.00  0.00    -0.019 N 
ATOM      7  H22 Q8U A 901      21.185 -16.727  19.881  1.00  0.00     0.203 HD
ENDROOT
BRANCH   2   8
ATOM      8  N17 Q8U A 901      22.423 -15.149  21.817  1.00  0.00    -0.190 N 
ATOM      9  H   Q8U A 901      22.980 -15.899  21.508  1.00  0.00     0.184 HD
BRANCH   8  10
ATOM     10  C14 Q8U A 901      22.951 -14.402  22.873  1.00  0.00     0.049 A 
ATOM     11  C13 Q8U A 901      24.281 -14.762  23.285  1.00  0.00     0.037 A 
ATOM     12  C10 Q8U A 901      24.899 -14.074  24.371  1.00  0.00    -0.050 A 
ATOM     13  C11 Q8U A 901      26.336 -14.554  24.729  1.00  0.00     0.041 C 
ATOM     14  C09 Q8U A 901      24.222 -13.046  24.967  1.00  0.00    -0.052 A 
ATOM     15  C12 Q8U A 901      27.352 -13.512  24.503  1.00  0.00     0.037 C 
ATOM     16  C06 Q8U A 901      27.507 -12.408  25.617  1.00  0.00     0.188 C 
ATOM     17  C07 Q8U A 901      26.112 -11.480  25.579  1.00  0.00     0.037 C 
ATOM     18  C08 Q8U A 901      24.836 -12.205  26.082  1.00  0.00     0.041 C 
ATOM     19  C16 Q8U A 901      22.907 -12.665  24.539  1.00  0.00     0.010 A 
ATOM     20  C15 Q8U A 901      22.250 -13.351  23.497  1.00  0.00     0.030 A 
BRANCH  16  21
ATOM     21  N04 Q8U A 901      28.553 -11.736  25.382  1.00  0.00    -0.067 N 
ATOM     22  C03 Q8U A 901      28.669 -10.725  26.079  1.00  0.00     0.235 C 
ATOM     23  C02 Q8U A 901      30.211 -10.395  26.014  1.00  0.00     0.029 C 
ATOM     24  C01 Q8U A 901      30.813 -11.717  25.957  1.00  0.00     0.029 C 
ATOM     25  C05 Q8U A 901      29.871 -12.558  25.687  1.00  0.00     0.235 C 
ATOM     26  H   Q8U A 901      28.449 -11.495  24.396  1.00  0.00     0.280 HD
ENDBRANCH  16  21
ENDBRANCH   8  10
ENDBRANCH   2   8
BRANCH   1  27
ATOM     27  N23 Q8U A 901      18.755 -15.975  18.790  1.00  0.00    -0.232 N 
ATOM     28  H   Q8U A 901      19.015 -16.830  18.378  1.00  0.00     0.174 HD
ATOM     29  H   Q8U A 901      17.926 -15.525  18.508  1.00  0.00     0.174 HD
ENDBRANCH   1  27
BRANCH   5  30
ATOM     30  C24 Q8U A 901      18.188 -13.347  20.303  1.00  0.00     0.161 A 
ATOM     31  N25 Q8U A 901      17.137 -13.810  19.549  1.00  0.00    -0.283 N 
ATOM     32  N26 Q8U A 901      16.032 -13.059  19.478  1.00  0.00    -0.298 N 
ATOM     33  H25 Q8U A 901      17.197 -14.701  19.057  1.00  0.00     0.188 HD
ATOM     34  C27 Q8U A 901      15.990 -11.806  20.090  1.00  0.00     0.065 A 
ATOM     35  H26 Q8U A 901      15.216 -13.405  18.974  1.00  0.00     0.187 HD
ATOM     36  C38 Q8U A 901      14.728 -11.118  19.917  1.00  0.00    -0.001 A 
ATOM     37  C28 Q8U A 901      17.025 -11.315  20.832  1.00  0.00    -0.025 A 
ATOM     38  C33 Q8U A 901      14.092 -10.522  21.014  1.00  0.00    -0.046 A 
ATOM     39  C37 Q8U A 901      14.135 -11.096  18.634  1.00  0.00     0.014 A 
ATOM     40  C32 Q8U A 901      14.722 -10.655  22.434  1.00  0.00     0.040 C 
ATOM     41  C34 Q8U A 901      12.847  -9.906  20.866  1.00  0.00     0.008 A 
ATOM     42  C31 Q8U A 901      16.039  -9.891  22.611  1.00  0.00     0.009 C 
ATOM     43  C30 Q8U A 901      16.917  -9.918  21.425  1.00  0.00     0.041 C 
ATOM     44  C35 Q8U A 901      12.288  -9.834  19.620  1.00  0.00     0.001 A 
ATOM     45  C36 Q8U A 901      12.908 -10.449  18.502  1.00  0.00     0.001 A 
ATOM     46  C29 Q8U A 901      18.249 -12.110  20.965  1.00  0.00     0.062 A 
ENDBRANCH   5  30
TORSDOF 5
