REMARK  4 active torsions:
REMARK  status: ('A' for Active; 'I' for Inactive)
REMARK    1  A    between atoms: C4_1  and  C2_9 
REMARK    2  A    between atoms: C11_4  and  N10_12 
REMARK    3  A    between atoms: C19_18  and  N25_24 
REMARK    4  A    between atoms: C29_28  and  C31_29 
REMARK       I    between atoms: C31_29  and  N33_31 
ROOT
ATOM      1  C4  X3W d   1     -17.751   9.900  26.457  0.00  0.00     0.126 C 
ATOM      2  C6  X3W d   1     -17.938   9.036  25.189  0.00  0.00     0.257 C 
ATOM      3  C8  X3W d   1     -15.894  10.027  25.127  0.00  0.00     0.409 C 
ATOM      4  O7  X3W d   1     -16.584   8.980  24.663  0.00  0.00    -0.448 OA
ATOM      5  O9  X3W d   1     -14.829  10.353  24.642  0.00  0.00    -0.226 OA
ATOM      6  N10 X3W d   1     -16.493  10.626  26.183  0.00  0.00    -0.214 N 
ENDROOT
BRANCH   1   7
ATOM      7  C2  X3W d   1     -17.698   9.076  27.775  0.00  0.00     0.007 C 
ATOM      8  C3  X3W d   1     -16.724   7.885  27.823  0.00  0.00     0.009 C 
ATOM      9  C1  X3W d   1     -19.079   8.633  28.251  0.00  0.00     0.009 C 
ENDBRANCH   1   7
BRANCH   6  10
ATOM     10  C11 X3W d   1     -16.052  11.743  26.913  0.00  0.00     0.149 A 
ATOM     11  C12 X3W d   1     -14.871  12.406  26.840  0.00  0.00     0.132 A 
ATOM     12  N13 X3W d   1     -14.908  13.429  27.750  0.00  0.00    -0.325 N 
ATOM     13  C14 X3W d   1     -16.127  13.330  28.420  0.00  0.00     0.146 A 
ATOM     14  C24 X3W d   1     -13.840  14.381  27.989  0.00  0.00     0.164 C 
ATOM     15  N15 X3W d   1     -16.781  12.342  27.852  0.00  0.00    -0.212 NA
ATOM     16  C16 X3W d   1     -16.700  14.212  29.483  0.00  0.00     0.059 A 
ATOM     17  C17 X3W d   1     -17.983  13.891  29.960  0.00  0.00     0.017 A 
ATOM     18  C21 X3W d   1     -16.081  15.415  29.951  0.00  0.00     0.133 A 
ATOM     19  C18 X3W d   1     -18.618  14.707  30.892  0.00  0.00     0.024 A 
ATOM     20  C19 X3W d   1     -17.991  15.864  31.388  0.00  0.00     0.034 A 
ATOM     21  C20 X3W d   1     -16.733  16.213  30.874  0.00  0.00     0.069 A 
ATOM     22  O22 X3W d   1     -14.851  15.811  29.546  0.00  0.00    -0.489 OA
ATOM     23  C23 X3W d   1     -14.423  15.772  28.192  0.00  0.00     0.250 C 
BRANCH  20  24
ATOM     24  N25 X3W d   1     -18.663  16.747  32.269  0.00  0.00    -0.318 N 
ATOM     25  C26 X3W d   1     -17.912  17.718  33.120  0.00  0.00     0.106 C 
ATOM     26  C27 X3W d   1     -19.039  18.439  33.890  0.00  0.00     0.021 C 
ATOM     27  C28 X3W d   1     -20.101  17.340  34.127  0.00  0.00     0.033 C 
ATOM     28  C29 X3W d   1     -19.925  16.340  32.965  0.00  0.00     0.159 C 
BRANCH  28  29
ATOM     29  C31 X3W d   1     -21.085  16.411  31.997  0.00  0.00     0.231 C 
ATOM     30  O32 X3W d   1     -21.985  15.598  32.070  0.00  0.00    -0.274 OA
ATOM     31  N33 X3W d   1     -21.085  17.332  31.012  0.00  0.00    -0.328 N 
ATOM     32  H   X3W d   1     -20.355  17.990  30.954  0.00  0.00     0.145 HD
ATOM     33  H   X3W d   1     -21.815  17.346  30.351  0.00  0.00     0.145 HD
ENDBRANCH  28  29
ENDBRANCH  20  24
ENDBRANCH   6  10
TORSDOF 4
