REMARK  5 active torsions:
REMARK  status: ('A' for Active; 'I' for Inactive)
REMARK    1  A    between atoms: C2_2  and  N1_22 
REMARK       I    between atoms: C3_3  and  N1_22 
REMARK       I    between atoms: C3_3  and  N2_24 
REMARK    2  A    between atoms: C13_7  and  C15_9 
REMARK    3  A    between atoms: C15_9  and  C18_12 
REMARK    4  A    between atoms: C10_17  and  C9_18 
REMARK    5  A    between atoms: C7_25  and  C8_26 
REMARK       I    between atoms: C8_26  and  N3_27 
ROOT
ATOM      1  C1  1LT d1101     128.817 123.236 121.732  0.00  0.00     0.055 A 
ATOM      2  C2  1LT d1101     127.051 122.807 120.143  0.00  0.00     0.166 A 
ATOM      3  C9  1LT d1101     127.688 123.971 122.203  0.00  0.00     0.044 A 
ATOM      4  C   1LT d1101     130.174 123.165 122.371  0.00  0.00     0.067 C 
ATOM      5  S   1LT d1101     126.540 123.736 121.234  0.00  0.00    -0.052 SA
ATOM      6  N   1LT d1101     128.404 122.495 120.416  0.00  0.00    -0.229 NA
ENDROOT
BRANCH   3   7
ATOM      7  C10 1LT d1101     127.550 124.872 123.451  0.00  0.00    -0.006 A 
ATOM      8  C11 1LT d1101     128.548 125.084 124.312  0.00  0.00     0.029 A 
ATOM      9  C12 1LT d1101     128.347 125.909 125.412  0.00  0.00     0.112 A 
ATOM     10  N4  1LT d1101     127.159 126.493 125.607  0.00  0.00    -0.259 NA
ATOM     11  C13 1LT d1101     126.154 126.278 124.736  0.00  0.00     0.056 A 
ATOM     12  C14 1LT d1101     126.353 125.463 123.651  0.00  0.00     0.033 A 
BRANCH  11  13
ATOM     13  C15 1LT d1101     124.755 126.957 124.955  0.00  0.00     0.102 C 
ATOM     14  C16 1LT d1101     124.482 127.115 126.481  0.00  0.00     0.026 C 
ATOM     15  C17 1LT d1101     123.631 126.129 124.307  0.00  0.00     0.026 C 
BRANCH  13  16
ATOM     16  C18 1LT d1101     124.792 128.366 124.270  0.00  0.00     0.400 C 
ATOM     17  F2  1LT d1101     123.550 128.901 124.278  0.00  0.00    -0.170 F 
ATOM     18  F   1LT d1101     125.658 129.169 124.946  0.00  0.00    -0.170 F 
ATOM     19  F1  1LT d1101     125.220 128.198 122.975  0.00  0.00    -0.170 F 
ENDBRANCH  13  16
ENDBRANCH  11  13
ENDBRANCH   3   7
BRANCH   2  20
ATOM     20  N1  1LT d1101     126.459 122.212 118.937  0.00  0.00    -0.248 N 
ATOM     21  C3  1LT d1101     127.186 121.208 118.148  0.00  0.00     0.309 C 
ATOM     22  O   1LT d1101     128.259 120.858 118.474  0.00  0.00    -0.252 OA
ATOM     23  N2  1LT d1101     126.564 120.648 116.960  0.00  0.00    -0.274 N 
ATOM     24  C7  1LT d1101     125.356 120.964 116.485  0.00  0.00     0.163 C 
ATOM     25  C4  1LT d1101     127.178 119.586 116.017  0.00  0.00     0.110 C 
ATOM     26  C6  1LT d1101     125.401 120.616 114.868  0.00  0.00     0.033 C 
ATOM     27  C5  1LT d1101     126.281 119.604 114.704  0.00  0.00     0.021 C 
ATOM     28  H   1LT d1101     125.559 122.491 118.652  0.00  0.00     0.158 HD
BRANCH  24  29
ATOM     29  C8  1LT d1101     124.318 120.124 117.158  0.00  0.00     0.231 C 
ATOM     30  O1  1LT d1101     123.837 119.224 116.576  0.00  0.00    -0.274 OA
ATOM     31  N3  1LT d1101     123.904 120.408 118.510  0.00  0.00    -0.328 N 
ATOM     32  H   1LT d1101     123.220 119.848 118.943  0.00  0.00     0.145 HD
ATOM     33  H   1LT d1101     124.306 121.162 119.000  0.00  0.00     0.145 HD
ENDBRANCH  24  29
ENDBRANCH   2  20
TORSDOF 5
