REMARK  5 active torsions:
REMARK  status: ('A' for Active; 'I' for Inactive)
REMARK    1  A    between atoms: C2_2  and  N1_22 
REMARK       I    between atoms: C3_3  and  N1_22 
REMARK       I    between atoms: C3_3  and  N2_24 
REMARK    2  A    between atoms: C13_7  and  C15_9 
REMARK    3  A    between atoms: C15_9  and  C18_12 
REMARK    4  A    between atoms: C10_17  and  C9_18 
REMARK    5  A    between atoms: C7_25  and  C8_26 
REMARK       I    between atoms: C8_26  and  N3_27 
ROOT
ATOM      1  C1  1LT d1101     127.825 138.764 154.336  0.00  0.00     0.055 A 
ATOM      2  C2  1LT d1101     126.412 138.488 156.291  0.00  0.00     0.166 A 
ATOM      3  C9  1LT d1101     126.480 138.724 153.833  0.00  0.00     0.044 A 
ATOM      4  C   1LT d1101     129.108 138.918 153.563  0.00  0.00     0.067 C 
ATOM      5  S   1LT d1101     125.546 138.551 155.032  0.00  0.00    -0.052 SA
ATOM      6  N   1LT d1101     127.766 138.611 155.896  0.00  0.00    -0.229 NA
ENDROOT
BRANCH   3   7
ATOM      7  C10 1LT d1101     125.943 138.827 152.377  0.00  0.00    -0.006 A 
ATOM      8  C11 1LT d1101     126.722 139.041 151.308  0.00  0.00     0.029 A 
ATOM      9  C12 1LT d1101     126.158 139.123 150.040  0.00  0.00     0.112 A 
ATOM     10  N4  1LT d1101     124.832 138.986 149.882  0.00  0.00    -0.259 NA
ATOM     11  C13 1LT d1101     124.044 138.767 150.956  0.00  0.00     0.056 A 
ATOM     12  C14 1LT d1101     124.608 138.690 152.208  0.00  0.00     0.033 A 
BRANCH  11  13
ATOM     13  C15 1LT d1101     122.481 138.605 150.808  0.00  0.00     0.102 C 
ATOM     14  C16 1LT d1101     121.902 137.925 152.090  0.00  0.00     0.026 C 
ATOM     15  C17 1LT d1101     121.847 139.997 150.641  0.00  0.00     0.026 C 
BRANCH  13  16
ATOM     16  C18 1LT d1101     122.109 137.718 149.557  0.00  0.00     0.400 C 
ATOM     17  F2  1LT d1101     122.094 138.491 148.445  0.00  0.00    -0.170 F 
ATOM     18  F   1LT d1101     123.027 136.722 149.407  0.00  0.00    -0.170 F 
ATOM     19  F1  1LT d1101     120.858 137.167 149.757  0.00  0.00    -0.170 F 
ENDBRANCH  13  16
ENDBRANCH  11  13
ENDBRANCH   3   7
BRANCH   2  20
ATOM     20  N1  1LT d1101     126.209 138.337 157.744  0.00  0.00    -0.248 N 
ATOM     21  C3  1LT d1101     124.904 137.912 158.305  0.00  0.00     0.309 C 
ATOM     22  O   1LT d1101     123.982 137.684 157.597  0.00  0.00    -0.252 OA
ATOM     23  N2  1LT d1101     124.772 137.783 159.756  0.00  0.00    -0.267 N 
ATOM     24  C7  1LT d1101     123.679 137.403 160.444  0.00  0.00     0.186 C 
ATOM     25  C4  1LT d1101     125.904 138.047 160.778  0.00  0.00     0.137 C 
ATOM     26  C6  1LT d1101     124.155 137.087 162.001  0.00  0.00     0.002 C 
ATOM     27  C5  1LT d1101     125.503 137.177 162.045  0.00  0.00    -0.010 C 
ATOM     28  H   1LT d1101     126.958 138.523 158.356  0.00  0.00     0.158 HD
BRANCH  24  29
ATOM     29  C8  1LT d1101     122.652 138.495 160.457  0.00  0.00     0.235 C 
ATOM     30  O1  1LT d1101     122.992 139.622 160.479  0.00  0.00    -0.274 OA
ATOM     31  N3  1LT d1101     121.246 138.159 160.449  0.00  0.00    -0.328 N 
ATOM     32  H   1LT d1101     120.569 138.874 160.458  0.00  0.00     0.145 HD
ATOM     33  H   1LT d1101     120.966 137.215 160.435  0.00  0.00     0.145 HD
ENDBRANCH  24  29
ENDBRANCH   2  20
TORSDOF 5
