REMARK  3 active torsions:
REMARK  status: ('A' for Active; 'I' for Inactive)
REMARK    1  A    between atoms: C1_1  and  N2_2 
REMARK    2  A    between atoms: C14_14  and  C9_9 
REMARK    3  A    between atoms: C14_14  and  C15_15 
REMARK       I    between atoms: C15_15  and  N17_17 
ROOT
ATOM      1  C1  J82 A         -27.484  22.347  29.863  0.00  0.00     0.392 A 
ATOM      2  N8  J82 A         -27.848  22.693  28.596  0.00  0.00    -0.574 NA
ATOM      3  C9  J82 A         -26.957  23.290  27.794  0.00  0.00     0.391 A 
ATOM      4  N10 J82 A         -25.649  23.585  28.202  0.00  0.00    -0.476 N 
ATOM      5  C11 J82 A         -25.200  23.267  29.472  0.00  0.00     0.707 A 
ATOM      6  C12 J82 A         -26.163  22.631  30.310  0.00  0.00    -0.211 A 
ATOM      7  O13 J82 A         -24.037  23.549  29.791  0.00  0.00    -0.630 OA
ATOM      8  H10 J82 A         -25.020  24.040  27.555  0.00  0.00     0.361 HD
ENDROOT
BRANCH   1   9
ATOM      9  N2  J82 A         -28.424  21.730  30.671  0.00  0.00    -0.241 N 
ATOM     10  C3  J82 A         -29.681  21.207  30.116  0.00  0.00     0.099 C 
ATOM     11  C4  J82 A         -30.756  21.207  31.183  0.00  0.00     0.237 C 
ATOM     12  O5  J82 A         -30.346  20.498  32.349  0.00  0.00    -0.409 OA
ATOM     13  C6  J82 A         -29.167  21.081  32.902  0.00  0.00     0.237 C 
ATOM     14  C7  J82 A         -28.024  21.051  31.914  0.00  0.00     0.099 C 
ENDBRANCH   1   9
BRANCH   3  15
ATOM     15  C14 J82 A         -27.283  23.648  26.368  0.00  0.00     0.006 C 
BRANCH  15  16
ATOM     16  C15 J82 A         -27.166  22.516  25.368  0.00  0.00     0.671 C 
ATOM     17  O16 J82 A         -26.148  21.838  25.372  0.00  0.00    -0.605 OA
ATOM     18  N17 J82 A         -28.177  22.278  24.476  0.00  0.00    -0.360 N 
ATOM     19  C19 J82 A         -29.406  23.188  24.390  0.00  0.00     0.164 C 
ATOM     20  C21 J82 A         -28.368  21.168  23.611  0.00  0.00     0.049 A 
ATOM     21  C18 J82 A         -30.447  22.302  23.722  0.00  0.00     0.093 C 
ATOM     22  C26 J82 A         -29.150  24.420  23.531  0.00  0.00     0.035 C 
ATOM     23  C20 J82 A         -29.642  21.228  23.051  0.00  0.00    -0.129 A 
ATOM     24  C25 J82 A         -30.014  20.299  22.090  0.00  0.00     0.041 A 
ATOM     25  C24 J82 A         -29.128  19.301  21.714  0.00  0.00    -0.014 A 
ATOM     26  C23 J82 A         -27.870  19.227  22.295  0.00  0.00     0.028 A 
ATOM     27  C22 J82 A         -27.476  20.157  23.248  0.00  0.00     0.042 A 
ENDBRANCH  15  16
ENDBRANCH   3  15
TORSDOF 3
