MODEL 1
REMARK VINA RESULT:    -8.405      0.000      0.000
REMARK INTER + INTRA:         -13.599
REMARK INTER:                 -12.336
REMARK INTRA:                  -1.264
REMARK UNBOUND:                -1.264
REMARK  8 active torsions:
REMARK  status: ('A' for Active; 'I' for Inactive)
REMARK    1  A    between atoms: C1_1  and  C3_3 
REMARK    2  A    between atoms: C7_4  and  N3_28 
REMARK    3  A    between atoms: C10_7  and  O1_29 
REMARK    4  A    between atoms: C13_10  and  O1_29 
REMARK    5  A    between atoms: C16_13  and  O3_37 
REMARK    6  A    between atoms: C6_19  and  C5_20 
REMARK       I    between atoms: C6_19  and  N3_28 
REMARK    7  A    between atoms: C5_20  and  N_21 
REMARK    8  A    between atoms: C17_35  and  O2_36 
ROOT
ATOM      1  C7  F8B A1201      13.945   0.302   7.976  1.00  0.00     0.034 A 
ATOM      2  C8  F8B A1201      12.603   0.162   7.622  1.00  0.00     0.032 A 
ATOM      3  C9  F8B A1201      11.664  -0.207   8.570  1.00  0.00     0.039 A 
ATOM      4  C10 F8B A1201      12.062  -0.438   9.880  1.00  0.00     0.078 A 
ATOM      5  C11 F8B A1201      13.398  -0.298  10.244  1.00  0.00     0.039 A 
ATOM      6  C12 F8B A1201      14.335   0.069   9.293  1.00  0.00     0.032 A 
ENDROOT
BRANCH   4   7
ATOM      7  O1  F8B A1201      11.122  -0.805  10.837  1.00  0.00    -0.293 OA
BRANCH   7   8
ATOM      8  C13 F8B A1201      11.013  -2.135  11.179  1.00  0.00     0.161 A 
ATOM      9  N5  F8B A1201      11.289  -3.082  10.288  1.00  0.00    -0.332 N 
ATOM     10  C20 F8B A1201      11.156  -4.358  10.695  1.00  0.00     0.182 A 
ATOM     11  H5  F8B A1201      11.589  -2.853   9.341  1.00  0.00     0.168 HD
ATOM     12  N4  F8B A1201      10.773  -4.808  11.890  1.00  0.00    -0.351 N 
ATOM     13  C19 F8B A1201      10.485  -3.832  12.812  1.00  0.00     0.050 A 
ATOM     14  H4  F8B A1201      10.700  -5.803  12.104  1.00  0.00     0.166 HD
ATOM     15  C14 F8B A1201      10.589  -2.449  12.513  1.00  0.00     0.045 A 
ATOM     16  C18 F8B A1201      10.080  -4.230  14.107  1.00  0.00     0.070 A 
ATOM     17  C15 F8B A1201      10.274  -1.497  13.522  1.00  0.00     0.057 A 
ATOM     18  C16 F8B A1201       9.884  -1.907  14.766  1.00  0.00     0.102 A 
ATOM     19  C17 F8B A1201       9.779  -3.294  15.062  1.00  0.00     0.103 A 
BRANCH  18  20
ATOM     20  O3  F8B A1201       9.559  -1.073  15.802  1.00  0.00    -0.353 OA
ATOM     21  C22 F8B A1201      10.627  -0.458  16.529  1.00  0.00     0.210 C 
ENDBRANCH  18  20
BRANCH  19  22
ATOM     22  O2  F8B A1201       9.377  -3.576  16.340  1.00  0.00    -0.353 OA
ATOM     23  C21 F8B A1201       8.743  -4.835  16.581  1.00  0.00     0.210 C 
ENDBRANCH  19  22
ENDBRANCH   7   8
ENDBRANCH   4   7
BRANCH   1  24
ATOM     24  N3  F8B A1201      14.934   0.705   7.047  1.00  0.00    -0.326 N 
ATOM     25  C6  F8B A1201      15.314  -0.069   5.996  1.00  0.00     0.241 C 
ATOM     26  O   F8B A1201      14.839  -1.183   5.777  1.00  0.00    -0.271 OA
ATOM     27  H   F8B A1201      15.365   1.582   7.167  1.00  0.00     0.169 HD
BRANCH  25  28
ATOM     28  C5  F8B A1201      16.375   0.530   5.086  1.00  0.00     0.252 C 
BRANCH  28  29
ATOM     29  N   F8B A1201      17.535  -0.352   5.129  1.00  0.00    -0.278 N 
ATOM     30  C4  F8B A1201      18.842  -0.046   5.013  1.00  0.00     0.139 A 
ATOM     31  C3  F8B A1201      19.495  -1.235   5.118  1.00  0.00     0.047 A 
ATOM     32  N2  F8B A1201      18.558  -2.216   5.293  1.00  0.00    -0.289 N 
ATOM     33  N1  F8B A1201      17.364  -1.671   5.298  1.00  0.00    -0.240 N 
ATOM     34  H2  F8B A1201      18.755  -3.210   5.403  1.00  0.00     0.188 HD
ATOM     35  H1  F8B A1201      16.474  -2.158   5.408  1.00  0.00     0.208 HD
BRANCH  31  36
ATOM     36  C1  F8B A1201      20.982  -1.501   5.063  1.00  0.00     0.030 C 
ATOM     37  C   F8B A1201      21.427  -1.782   3.646  1.00  0.00     0.016 C 
ATOM     38  C2  F8B A1201      21.783  -0.350   5.639  1.00  0.00     0.016 C 
ENDBRANCH  31  36
ENDBRANCH  28  29
ENDBRANCH  25  28
ENDBRANCH   1  24
TORSDOF 8
ENDMDL
MODEL 2
REMARK VINA RESULT:    -5.415      0.903      1.076
REMARK INTER + INTRA:          -9.211
REMARK INTER:                  -9.303
REMARK INTRA:                   0.092
REMARK UNBOUND:                -1.264
REMARK  8 active torsions:
REMARK  status: ('A' for Active; 'I' for Inactive)
REMARK    1  A    between atoms: C1_1  and  C3_3 
REMARK    2  A    between atoms: C7_4  and  N3_28 
REMARK    3  A    between atoms: C10_7  and  O1_29 
REMARK    4  A    between atoms: C13_10  and  O1_29 
REMARK    5  A    between atoms: C16_13  and  O3_37 
REMARK    6  A    between atoms: C6_19  and  C5_20 
REMARK       I    between atoms: C6_19  and  N3_28 
REMARK    7  A    between atoms: C5_20  and  N_21 
REMARK    8  A    between atoms: C17_35  and  O2_36 
ROOT
ATOM      1  C7  F8B A1201      13.570   0.036   7.472  1.00  0.00     0.034 A 
ATOM      2  C8  F8B A1201      12.180   0.137   7.539  1.00  0.00     0.032 A 
ATOM      3  C9  F8B A1201      11.513  -0.159   8.715  1.00  0.00     0.039 A 
ATOM      4  C10 F8B A1201      12.233  -0.557   9.834  1.00  0.00     0.078 A 
ATOM      5  C11 F8B A1201      13.620  -0.657   9.777  1.00  0.00     0.039 A 
ATOM      6  C12 F8B A1201      14.283  -0.362   8.600  1.00  0.00     0.032 A 
ENDROOT
BRANCH   4   7
ATOM      7  O1  F8B A1201      11.568  -0.851  11.019  1.00  0.00    -0.293 OA
BRANCH   7   8
ATOM      8  C13 F8B A1201      11.207  -2.157  11.267  1.00  0.00     0.161 A 
ATOM      9  N5  F8B A1201      11.370  -3.088  10.332  1.00  0.00    -0.332 N 
ATOM     10  C20 F8B A1201      10.991  -4.340  10.646  1.00  0.00     0.182 A 
ATOM     11  H5  F8B A1201      11.763  -2.864   9.418  1.00  0.00     0.168 HD
ATOM     12  N4  F8B A1201      10.462  -4.781  11.788  1.00  0.00    -0.351 N 
ATOM     13  C19 F8B A1201      10.291  -3.822  12.755  1.00  0.00     0.050 A 
ATOM     14  H4  F8B A1201      10.203  -5.757  11.931  1.00  0.00     0.166 HD
ATOM     15  C14 F8B A1201      10.652  -2.465  12.554  1.00  0.00     0.045 A 
ATOM     16  C18 F8B A1201       9.742  -4.213  13.999  1.00  0.00     0.070 A 
ATOM     17  C15 F8B A1201      10.446  -1.529  13.605  1.00  0.00     0.057 A 
ATOM     18  C16 F8B A1201       9.913  -1.932  14.798  1.00  0.00     0.102 A 
ATOM     19  C17 F8B A1201       9.550  -3.292  14.996  1.00  0.00     0.103 A 
BRANCH  18  20
ATOM     20  O3  F8B A1201       9.673  -1.112  15.868  1.00  0.00    -0.353 OA
ATOM     21  C22 F8B A1201       9.855   0.296  15.689  1.00  0.00     0.210 C 
ENDBRANCH  18  20
BRANCH  19  22
ATOM     22  O2  F8B A1201       9.025  -3.569  16.230  1.00  0.00    -0.353 OA
ATOM     23  C21 F8B A1201       9.906  -3.541  17.355  1.00  0.00     0.210 C 
ENDBRANCH  19  22
ENDBRANCH   7   8
ENDBRANCH   4   7
BRANCH   1  24
ATOM     24  N3  F8B A1201      14.295   0.356   6.299  1.00  0.00    -0.326 N 
ATOM     25  C6  F8B A1201      15.401  -0.333   5.909  1.00  0.00     0.241 C 
ATOM     26  O   F8B A1201      15.864  -1.276   6.548  1.00  0.00    -0.271 OA
ATOM     27  H   F8B A1201      13.987   1.108   5.744  1.00  0.00     0.169 HD
BRANCH  25  28
ATOM     28  C5  F8B A1201      16.043   0.134   4.612  1.00  0.00     0.252 C 
BRANCH  28  29
ATOM     29  N   F8B A1201      17.479   0.231   4.847  1.00  0.00    -0.278 N 
ATOM     30  C4  F8B A1201      18.412  -0.741   4.831  1.00  0.00     0.139 A 
ATOM     31  C3  F8B A1201      19.583  -0.113   5.120  1.00  0.00     0.047 A 
ATOM     32  N2  F8B A1201      19.316   1.216   5.299  1.00  0.00    -0.289 N 
ATOM     33  N1  F8B A1201      18.029   1.419   5.133  1.00  0.00    -0.240 N 
ATOM     34  H2  F8B A1201      20.004   1.934   5.526  1.00  0.00     0.188 HD
ATOM     35  H1  F8B A1201      17.541   2.312   5.207  1.00  0.00     0.208 HD
BRANCH  31  36
ATOM     36  C1  F8B A1201      20.969  -0.708   5.235  1.00  0.00     0.030 C 
ATOM     37  C   F8B A1201      21.157  -1.831   4.243  1.00  0.00     0.016 C 
ATOM     38  C2  F8B A1201      22.049   0.339   5.044  1.00  0.00     0.016 C 
ENDBRANCH  31  36
ENDBRANCH  28  29
ENDBRANCH  25  28
ENDBRANCH   1  24
TORSDOF 8
ENDMDL
