MODEL 1
REMARK VINA RESULT:    -8.367      0.000      0.000
REMARK INTER + INTRA:         -17.064
REMARK INTER:                 -14.725
REMARK INTRA:                  -2.339
REMARK UNBOUND:                -2.339
REMARK  13 active torsions:
REMARK  status: ('A' for Active; 'I' for Inactive)
REMARK    1  A    between atoms: C1_1  and  C_13 
REMARK    2  A    between atoms: C5_5  and  C6_6 
REMARK       I    between atoms: C6_6  and  N1_10 
REMARK    3  A    between atoms: C7_7  and  N1_10 
REMARK    4  A    between atoms: C_13  and  P_20 
REMARK       I    between atoms: N6_24  and  C34_25 
REMARK    5  A    between atoms: C9_34  and  C10_35 
REMARK       I    between atoms: C10_35  and  N3_37 
REMARK    6  A    between atoms: N3_37  and  C11_38 
REMARK    7  A    between atoms: C11_38  and  C15_44 
REMARK    8  A    between atoms: C11_38  and  C12_39 
REMARK    9  A    between atoms: C12_39  and  C13_40 
REMARK   10  A    between atoms: C13_40  and  C14_41 
REMARK       I    between atoms: C14_41  and  N4_43 
REMARK       I    between atoms: C15_44  and  N5_46 
REMARK   11  A    between atoms: N5_46  and  C16_47 
REMARK   12  A    between atoms: C16_47  and  C17_54 
REMARK   13  A    between atoms: C16_47  and  C23_48 
ROOT
ATOM      1  C7  KQV A 701      11.762  55.214  -2.421  1.00  0.00     0.195 C 
ATOM      2  C8  KQV A 701      12.765  55.649  -1.317  1.00  0.00     0.245 C 
ATOM      3  N2  KQV A 701      13.561  56.871  -1.576  1.00  0.00    -0.332 N 
ATOM      4  C36 KQV A 701      10.531  56.180  -2.375  1.00  0.00     0.160 C 
ATOM      5  N6  KQV A 701      10.687  57.319  -3.385  1.00  0.00    -0.350 N 
ATOM      6  C34 KQV A 701      10.179  57.292  -4.650  1.00  0.00     0.215 C 
ATOM      7  O6  KQV A 701       9.284  58.055  -4.984  1.00  0.00    -0.274 OA
ATOM      8  C35 KQV A 701      10.773  56.327  -5.635  1.00  0.00     0.117 C 
ATOM      9  C33 KQV A 701      11.356  58.535  -2.903  1.00  0.00     0.128 C 
ATOM     10  C32 KQV A 701      12.831  58.640  -3.234  1.00  0.00     0.045 C 
ATOM     11  C31 KQV A 701      13.787  57.483  -2.905  1.00  0.00     0.089 C 
ATOM     12  O7  KQV A 701      12.888  55.013  -0.283  1.00  0.00    -0.271 OA
ATOM     13  C30 KQV A 701      15.270  57.852  -2.841  1.00  0.00     0.028 C 
ATOM     14  C29 KQV A 701      15.513  58.153  -1.356  1.00  0.00     0.037 C 
ATOM     15  C9  KQV A 701      14.664  57.102  -0.640  1.00  0.00     0.179 C 
ENDROOT
BRANCH  15  16
ATOM     16  C10 KQV A 701      14.186  57.593   0.724  1.00  0.00     0.241 C 
ATOM     17  O5  KQV A 701      13.246  58.380   0.819  1.00  0.00    -0.271 OA
ATOM     18  N3  KQV A 701      14.843  57.088   1.774  1.00  0.00    -0.346 N 
ATOM     19  H   KQV A 701      15.630  56.521   1.603  1.00  0.00     0.163 HD
BRANCH  18  20
ATOM     20  C11 KQV A 701      14.457  57.334   3.154  1.00  0.00     0.177 C 
BRANCH  20  21
ATOM     21  C15 KQV A 701      14.576  58.806   3.554  1.00  0.00     0.241 C 
ATOM     22  N5  KQV A 701      13.524  59.593   3.278  1.00  0.00    -0.347 N 
ATOM     23  H   KQV A 701      12.701  59.180   2.930  1.00  0.00     0.163 HD
ATOM     24  O4  KQV A 701      15.606  59.215   4.086  1.00  0.00    -0.271 OA
BRANCH  22  25
ATOM     25  C16 KQV A 701      13.555  61.049   3.476  1.00  0.00     0.151 C 
BRANCH  25  26
ATOM     26  C17 KQV A 701      12.726  61.500   4.672  1.00  0.00    -0.031 A 
ATOM     27  C18 KQV A 701      12.344  62.829   4.819  1.00  0.00     0.009 A 
ATOM     28  C19 KQV A 701      11.657  63.247   5.950  1.00  0.00     0.001 A 
ATOM     29  C20 KQV A 701      11.334  62.340   6.943  1.00  0.00     0.000 A 
ATOM     30  C21 KQV A 701      11.701  61.014   6.803  1.00  0.00     0.001 A 
ATOM     31  C22 KQV A 701      12.390  60.597   5.674  1.00  0.00     0.009 A 
ENDBRANCH  25  26
BRANCH  25  32
ATOM     32  C23 KQV A 701      13.279  61.842   2.202  1.00  0.00    -0.031 A 
ATOM     33  C28 KQV A 701      12.398  61.365   1.237  1.00  0.00     0.009 A 
ATOM     34  C27 KQV A 701      12.213  62.055   0.047  1.00  0.00     0.001 A 
ATOM     35  C26 KQV A 701      12.900  63.230  -0.192  1.00  0.00     0.000 A 
ATOM     36  C25 KQV A 701      13.767  63.721   0.766  1.00  0.00     0.001 A 
ATOM     37  C24 KQV A 701      13.953  63.034   1.956  1.00  0.00     0.009 A 
ENDBRANCH  25  32
ENDBRANCH  22  25
ENDBRANCH  20  21
BRANCH  20  38
ATOM     38  C12 KQV A 701      15.265  56.450   4.108  1.00  0.00     0.044 C 
BRANCH  38  39
ATOM     39  C13 KQV A 701      14.410  55.427   4.865  1.00  0.00     0.105 C 
BRANCH  39  40
ATOM     40  C14 KQV A 701      15.092  54.106   5.136  1.00  0.00     0.215 C 
ATOM     41  N4  KQV A 701      14.293  53.079   5.382  1.00  0.00    -0.370 N 
ATOM     42  H   KQV A 701      13.316  53.206   5.387  1.00  0.00     0.159 HD
ATOM     43  H   KQV A 701      14.674  52.189   5.558  1.00  0.00     0.159 HD
ATOM     44  O3  KQV A 701      16.322  54.003   5.116  1.00  0.00    -0.274 OA
ENDBRANCH  39  40
ENDBRANCH  38  39
ENDBRANCH  20  38
ENDBRANCH  18  20
ENDBRANCH  15  16
BRANCH   1  45
ATOM     45  N1  KQV A 701      11.569  53.772  -2.468  1.00  0.00    -0.341 N 
ATOM     46  C6  KQV A 701      12.490  52.875  -2.873  1.00  0.00     0.269 C 
ATOM     47  O8  KQV A 701      13.508  53.179  -3.498  1.00  0.00    -0.266 OA
ATOM     48  H   KQV A 701      10.694  53.423  -2.180  1.00  0.00     0.163 HD
BRANCH  46  49
ATOM     49  C5  KQV A 701      12.210  51.464  -2.510  1.00  0.00     0.102 A 
ATOM     50  N   KQV A 701      13.176  50.522  -2.219  1.00  0.00    -0.351 N 
ATOM     51  C4  KQV A 701      12.551  49.338  -1.862  1.00  0.00     0.043 A 
ATOM     52  H   KQV A 701      14.149  50.667  -2.259  1.00  0.00     0.166 HD
ATOM     53  C3  KQV A 701      11.162  49.547  -1.932  1.00  0.00    -0.006 A 
ATOM     54  C38 KQV A 701      13.087  48.113  -1.465  1.00  0.00     0.031 A 
ATOM     55  C2  KQV A 701      10.312  48.499  -1.583  1.00  0.00     0.027 A 
ATOM     56  C37 KQV A 701      10.970  50.902  -2.349  1.00  0.00     0.049 A 
ATOM     57  C1  KQV A 701      10.819  47.274  -1.159  1.00  0.00     0.028 A 
ATOM     58  C39 KQV A 701      12.206  47.092  -1.119  1.00  0.00     0.016 A 
BRANCH  57  59
ATOM     59  C   KQV A 701       9.781  46.243  -0.663  1.00  0.00     0.380 C 
ATOM     60  F   KQV A 701       8.545  46.550  -1.133  1.00  0.00    -0.185 F 
ATOM     61  F1  KQV A 701       9.569  46.364   0.667  1.00  0.00    -0.185 F 
BRANCH  59  62
ATOM     62  P   KQV A 701      10.216  44.475  -1.141  1.00  0.00     0.339 P 
ATOM     63  O1  KQV A 701      11.210  43.994  -0.058  1.00  0.00    -0.635 OA
ATOM     64  O   KQV A 701       8.902  43.689  -0.975  1.00  0.00    -0.635 OA
ATOM     65  O2  KQV A 701      10.769  44.387  -2.528  1.00  0.00    -0.635 OA
ENDBRANCH  59  62
ENDBRANCH  57  59
ENDBRANCH  46  49
ENDBRANCH   1  45
TORSDOF 13
ENDMDL
MODEL 2
REMARK VINA RESULT:    -7.649      1.281      2.566
REMARK INTER + INTRA:         -15.800
REMARK INTER:                 -12.653
REMARK INTRA:                  -3.147
REMARK UNBOUND:                -2.339
REMARK  13 active torsions:
REMARK  status: ('A' for Active; 'I' for Inactive)
REMARK    1  A    between atoms: C1_1  and  C_13 
REMARK    2  A    between atoms: C5_5  and  C6_6 
REMARK       I    between atoms: C6_6  and  N1_10 
REMARK    3  A    between atoms: C7_7  and  N1_10 
REMARK    4  A    between atoms: C_13  and  P_20 
REMARK       I    between atoms: N6_24  and  C34_25 
REMARK    5  A    between atoms: C9_34  and  C10_35 
REMARK       I    between atoms: C10_35  and  N3_37 
REMARK    6  A    between atoms: N3_37  and  C11_38 
REMARK    7  A    between atoms: C11_38  and  C15_44 
REMARK    8  A    between atoms: C11_38  and  C12_39 
REMARK    9  A    between atoms: C12_39  and  C13_40 
REMARK   10  A    between atoms: C13_40  and  C14_41 
REMARK       I    between atoms: C14_41  and  N4_43 
REMARK       I    between atoms: C15_44  and  N5_46 
REMARK   11  A    between atoms: N5_46  and  C16_47 
REMARK   12  A    between atoms: C16_47  and  C17_54 
REMARK   13  A    between atoms: C16_47  and  C23_48 
ROOT
ATOM      1  C7  KQV A 701      11.839  55.354  -2.371  1.00  0.00     0.195 C 
ATOM      2  C8  KQV A 701      12.567  55.806  -1.075  1.00  0.00     0.245 C 
ATOM      3  N2  KQV A 701      13.405  57.024  -1.165  1.00  0.00    -0.332 N 
ATOM      4  C36 KQV A 701      10.632  56.321  -2.619  1.00  0.00     0.160 C 
ATOM      5  N6  KQV A 701      11.016  57.444  -3.583  1.00  0.00    -0.350 N 
ATOM      6  C34 KQV A 701      10.808  57.399  -4.930  1.00  0.00     0.215 C 
ATOM      7  O6  KQV A 701      10.014  58.157  -5.468  1.00  0.00    -0.274 OA
ATOM      8  C35 KQV A 701      11.605  56.420  -5.741  1.00  0.00     0.117 C 
ATOM      9  C33 KQV A 701      11.563  58.668  -2.980  1.00  0.00     0.128 C 
ATOM     10  C32 KQV A 701      13.074  58.768  -2.970  1.00  0.00     0.045 C 
ATOM     11  C31 KQV A 701      13.928  57.616  -2.417  1.00  0.00     0.089 C 
ATOM     12  O7  KQV A 701      12.451  55.185  -0.031  1.00  0.00    -0.271 OA
ATOM     13  C30 KQV A 701      15.359  57.986  -2.024  1.00  0.00     0.028 C 
ATOM     14  C29 KQV A 701      15.261  58.309  -0.527  1.00  0.00     0.037 C 
ATOM     15  C9  KQV A 701      14.269  57.269  -0.007  1.00  0.00     0.179 C 
ENDROOT
BRANCH  15  16
ATOM     16  C10 KQV A 701      13.496  57.779   1.206  1.00  0.00     0.241 C 
ATOM     17  O5  KQV A 701      12.370  58.259   1.083  1.00  0.00    -0.271 OA
ATOM     18  N3  KQV A 701      14.122  57.641   2.380  1.00  0.00    -0.346 N 
ATOM     19  H   KQV A 701      15.051  57.313   2.378  1.00  0.00     0.163 HD
BRANCH  18  20
ATOM     20  C11 KQV A 701      13.503  57.950   3.659  1.00  0.00     0.177 C 
BRANCH  20  21
ATOM     21  C15 KQV A 701      13.279  59.448   3.867  1.00  0.00     0.241 C 
ATOM     22  N5  KQV A 701      13.625  60.258   2.853  1.00  0.00    -0.347 N 
ATOM     23  H   KQV A 701      13.908  59.855   2.001  1.00  0.00     0.163 HD
ATOM     24  O4  KQV A 701      12.815  59.857   4.931  1.00  0.00    -0.271 OA
BRANCH  22  25
ATOM     25  C16 KQV A 701      13.597  61.723   2.969  1.00  0.00     0.151 C 
BRANCH  25  26
ATOM     26  C17 KQV A 701      13.379  62.417   1.630  1.00  0.00    -0.031 A 
ATOM     27  C18 KQV A 701      13.272  63.801   1.549  1.00  0.00     0.009 A 
ATOM     28  C19 KQV A 701      12.996  64.419   0.337  1.00  0.00     0.001 A 
ATOM     29  C20 KQV A 701      12.833  63.663  -0.809  1.00  0.00     0.000 A 
ATOM     30  C21 KQV A 701      12.947  62.287  -0.742  1.00  0.00     0.001 A 
ATOM     31  C22 KQV A 701      13.220  61.667   0.469  1.00  0.00     0.009 A 
ENDBRANCH  25  26
BRANCH  25  32
ATOM     32  C23 KQV A 701      14.760  62.291   3.775  1.00  0.00    -0.031 A 
ATOM     33  C28 KQV A 701      14.539  63.021   4.938  1.00  0.00     0.009 A 
ATOM     34  C27 KQV A 701      15.598  63.600   5.623  1.00  0.00     0.001 A 
ATOM     35  C26 KQV A 701      16.892  63.453   5.157  1.00  0.00     0.000 A 
ATOM     36  C25 KQV A 701      17.126  62.718   4.010  1.00  0.00     0.001 A 
ATOM     37  C24 KQV A 701      16.068  62.138   3.326  1.00  0.00     0.009 A 
ENDBRANCH  25  32
ENDBRANCH  22  25
ENDBRANCH  20  21
BRANCH  20  38
ATOM     38  C12 KQV A 701      14.320  57.362   4.813  1.00  0.00     0.044 C 
BRANCH  38  39
ATOM     39  C13 KQV A 701      15.157  56.142   4.410  1.00  0.00     0.105 C 
BRANCH  39  40
ATOM     40  C14 KQV A 701      14.601  54.812   4.867  1.00  0.00     0.215 C 
ATOM     41  N4  KQV A 701      13.382  54.516   4.442  1.00  0.00    -0.370 N 
ATOM     42  H   KQV A 701      12.892  55.151   3.871  1.00  0.00     0.159 HD
ATOM     43  H   KQV A 701      12.966  53.662   4.697  1.00  0.00     0.159 HD
ATOM     44  O3  KQV A 701      15.260  54.054   5.583  1.00  0.00    -0.274 OA
ENDBRANCH  39  40
ENDBRANCH  38  39
ENDBRANCH  20  38
ENDBRANCH  18  20
ENDBRANCH  15  16
BRANCH   1  45
ATOM     45  N1  KQV A 701      11.657  53.911  -2.439  1.00  0.00    -0.341 N 
ATOM     46  C6  KQV A 701      12.604  53.023  -2.797  1.00  0.00     0.269 C 
ATOM     47  O8  KQV A 701      13.656  53.336  -3.359  1.00  0.00    -0.266 OA
ATOM     48  H   KQV A 701      10.769  53.556  -2.205  1.00  0.00     0.163 HD
BRANCH  46  49
ATOM     49  C5  KQV A 701      12.312  51.608  -2.461  1.00  0.00     0.102 A 
ATOM     50  N   KQV A 701      13.270  50.635  -2.254  1.00  0.00    -0.351 N 
ATOM     51  C4  KQV A 701      12.638  49.455  -1.898  1.00  0.00     0.043 A 
ATOM     52  H   KQV A 701      14.243  50.760  -2.345  1.00  0.00     0.166 HD
ATOM     53  C3  KQV A 701      11.252  49.697  -1.883  1.00  0.00    -0.006 A 
ATOM     54  C38 KQV A 701      13.166  48.206  -1.569  1.00  0.00     0.031 A 
ATOM     55  C2  KQV A 701      10.398  48.657  -1.518  1.00  0.00     0.027 A 
ATOM     56  C37 KQV A 701      11.069  51.068  -2.248  1.00  0.00     0.049 A 
ATOM     57  C1  KQV A 701      10.899  47.409  -1.161  1.00  0.00     0.028 A 
ATOM     58  C39 KQV A 701      12.281  47.195  -1.204  1.00  0.00     0.016 A 
BRANCH  57  59
ATOM     59  C   KQV A 701       9.867  46.386  -0.637  1.00  0.00     0.380 C 
ATOM     60  F   KQV A 701       8.618  46.714  -1.060  1.00  0.00    -0.185 F 
ATOM     61  F1  KQV A 701       9.703  46.496   0.701  1.00  0.00    -0.185 F 
BRANCH  59  62
ATOM     62  P   KQV A 701      10.261  44.618  -1.148  1.00  0.00     0.339 P 
ATOM     63  O1  KQV A 701      11.223  44.086  -0.061  1.00  0.00    -0.635 OA
ATOM     64  O   KQV A 701       8.923  43.864  -1.021  1.00  0.00    -0.635 OA
ATOM     65  O2  KQV A 701      10.834  44.545  -2.528  1.00  0.00    -0.635 OA
ENDBRANCH  59  62
ENDBRANCH  57  59
ENDBRANCH  46  49
ENDBRANCH   1  45
TORSDOF 13
ENDMDL
MODEL 3
REMARK VINA RESULT:    -7.408      1.691      4.045
REMARK INTER + INTRA:         -15.377
REMARK INTER:                 -12.527
REMARK INTRA:                  -2.850
REMARK UNBOUND:                -2.339
REMARK  13 active torsions:
REMARK  status: ('A' for Active; 'I' for Inactive)
REMARK    1  A    between atoms: C1_1  and  C_13 
REMARK    2  A    between atoms: C5_5  and  C6_6 
REMARK       I    between atoms: C6_6  and  N1_10 
REMARK    3  A    between atoms: C7_7  and  N1_10 
REMARK    4  A    between atoms: C_13  and  P_20 
REMARK       I    between atoms: N6_24  and  C34_25 
REMARK    5  A    between atoms: C9_34  and  C10_35 
REMARK       I    between atoms: C10_35  and  N3_37 
REMARK    6  A    between atoms: N3_37  and  C11_38 
REMARK    7  A    between atoms: C11_38  and  C15_44 
REMARK    8  A    between atoms: C11_38  and  C12_39 
REMARK    9  A    between atoms: C12_39  and  C13_40 
REMARK   10  A    between atoms: C13_40  and  C14_41 
REMARK       I    between atoms: C14_41  and  N4_43 
REMARK       I    between atoms: C15_44  and  N5_46 
REMARK   11  A    between atoms: N5_46  and  C16_47 
REMARK   12  A    between atoms: C16_47  and  C17_54 
REMARK   13  A    between atoms: C16_47  and  C23_48 
ROOT
ATOM      1  C7  KQV A 701      11.885  55.238  -2.961  1.00  0.00     0.195 C 
ATOM      2  C8  KQV A 701      13.263  55.606  -2.345  1.00  0.00     0.245 C 
ATOM      3  N2  KQV A 701      14.020  56.700  -2.997  1.00  0.00    -0.332 N 
ATOM      4  C36 KQV A 701      10.858  56.354  -2.572  1.00  0.00     0.160 C 
ATOM      5  N6  KQV A 701      10.738  57.402  -3.680  1.00  0.00    -0.350 N 
ATOM      6  C34 KQV A 701       9.797  57.366  -4.666  1.00  0.00     0.215 C 
ATOM      7  O6  KQV A 701       8.920  58.216  -4.729  1.00  0.00    -0.274 OA
ATOM      8  C35 KQV A 701       9.886  56.277  -5.695  1.00  0.00     0.117 C 
ATOM      9  C33 KQV A 701      11.652  58.549  -3.599  1.00  0.00     0.128 C 
ATOM     10  C32 KQV A 701      12.902  58.446  -4.450  1.00  0.00     0.045 C 
ATOM     11  C31 KQV A 701      13.795  57.198  -4.373  1.00  0.00     0.089 C 
ATOM     12  O7  KQV A 701      13.698  55.022  -1.367  1.00  0.00    -0.271 OA
ATOM     13  C30 KQV A 701      15.224  57.378  -4.887  1.00  0.00     0.028 C 
ATOM     14  C29 KQV A 701      16.029  57.733  -3.630  1.00  0.00     0.037 C 
ATOM     15  C9  KQV A 701      15.408  56.843  -2.552  1.00  0.00     0.179 C 
ENDROOT
BRANCH  15  16
ATOM     16  C10 KQV A 701      15.520  57.470  -1.166  1.00  0.00     0.241 C 
ATOM     17  O5  KQV A 701      16.292  57.013  -0.324  1.00  0.00    -0.271 OA
ATOM     18  N3  KQV A 701      14.746  58.542  -0.961  1.00  0.00    -0.346 N 
ATOM     19  H   KQV A 701      14.105  58.796  -1.664  1.00  0.00     0.163 HD
BRANCH  18  20
ATOM     20  C11 KQV A 701      14.801  59.352   0.245  1.00  0.00     0.177 C 
BRANCH  20  21
ATOM     21  C15 KQV A 701      13.797  58.907   1.309  1.00  0.00     0.241 C 
ATOM     22  N5  KQV A 701      14.194  58.992   2.589  1.00  0.00    -0.347 N 
ATOM     23  H   KQV A 701      15.057  59.421   2.789  1.00  0.00     0.163 HD
ATOM     24  O4  KQV A 701      12.693  58.482   0.970  1.00  0.00    -0.271 OA
BRANCH  22  25
ATOM     25  C16 KQV A 701      13.389  58.468   3.701  1.00  0.00     0.151 C 
BRANCH  25  26
ATOM     26  C17 KQV A 701      12.965  59.552   4.685  1.00  0.00    -0.031 A 
ATOM     27  C18 KQV A 701      12.592  59.232   5.986  1.00  0.00     0.009 A 
ATOM     28  C19 KQV A 701      12.132  60.215   6.852  1.00  0.00     0.001 A 
ATOM     29  C20 KQV A 701      12.051  61.529   6.431  1.00  0.00     0.000 A 
ATOM     30  C21 KQV A 701      12.428  61.861   5.143  1.00  0.00     0.001 A 
ATOM     31  C22 KQV A 701      12.885  60.878   4.276  1.00  0.00     0.009 A 
ENDBRANCH  25  26
BRANCH  25  32
ATOM     32  C23 KQV A 701      13.998  57.237   4.366  1.00  0.00    -0.031 A 
ATOM     33  C28 KQV A 701      14.989  57.361   5.334  1.00  0.00     0.009 A 
ATOM     34  C27 KQV A 701      15.592  56.235   5.877  1.00  0.00     0.001 A 
ATOM     35  C26 KQV A 701      15.209  54.972   5.463  1.00  0.00     0.000 A 
ATOM     36  C25 KQV A 701      14.216  54.837   4.512  1.00  0.00     0.001 A 
ATOM     37  C24 KQV A 701      13.611  55.961   3.970  1.00  0.00     0.009 A 
ENDBRANCH  25  32
ENDBRANCH  22  25
ENDBRANCH  20  21
BRANCH  20  38
ATOM     38  C12 KQV A 701      14.613  60.834  -0.088  1.00  0.00     0.044 C 
BRANCH  38  39
ATOM     39  C13 KQV A 701      13.319  61.128  -0.855  1.00  0.00     0.105 C 
BRANCH  39  40
ATOM     40  C14 KQV A 701      12.308  61.960  -0.099  1.00  0.00     0.215 C 
ATOM     41  N4  KQV A 701      11.306  61.294   0.455  1.00  0.00    -0.370 N 
ATOM     42  H   KQV A 701      11.249  60.316   0.352  1.00  0.00     0.159 HD
ATOM     43  H   KQV A 701      10.618  61.776   0.968  1.00  0.00     0.159 HD
ATOM     44  O3  KQV A 701      12.428  63.184  -0.002  1.00  0.00    -0.274 OA
ENDBRANCH  39  40
ENDBRANCH  38  39
ENDBRANCH  20  38
ENDBRANCH  18  20
ENDBRANCH  15  16
BRANCH   1  45
ATOM     45  N1  KQV A 701      11.550  53.832  -2.788  1.00  0.00    -0.341 N 
ATOM     46  C6  KQV A 701      11.926  52.834  -3.611  1.00  0.00     0.269 C 
ATOM     47  O8  KQV A 701      12.374  53.018  -4.745  1.00  0.00    -0.266 OA
ATOM     48  H   KQV A 701      11.003  53.591  -2.005  1.00  0.00     0.163 HD
BRANCH  46  49
ATOM     49  C5  KQV A 701      11.777  51.464  -3.063  1.00  0.00     0.102 A 
ATOM     50  N   KQV A 701      12.826  50.663  -2.653  1.00  0.00    -0.351 N 
ATOM     51  C4  KQV A 701      12.311  49.484  -2.140  1.00  0.00     0.043 A 
ATOM     52  H   KQV A 701      13.781  50.894  -2.715  1.00  0.00     0.166 HD
ATOM     53  C3  KQV A 701      10.910  49.549  -2.233  1.00  0.00    -0.006 A 
ATOM     54  C38 KQV A 701      12.957  48.378  -1.586  1.00  0.00     0.031 A 
ATOM     55  C2  KQV A 701      10.159  48.480  -1.745  1.00  0.00     0.027 A 
ATOM     56  C37 KQV A 701      10.594  50.813  -2.826  1.00  0.00     0.049 A 
ATOM     57  C1  KQV A 701      10.775  47.376  -1.164  1.00  0.00     0.028 A 
ATOM     58  C39 KQV A 701      12.173  47.334  -1.104  1.00  0.00     0.016 A 
BRANCH  57  59
ATOM     59  C   KQV A 701       9.835  46.327  -0.532  1.00  0.00     0.380 C 
ATOM     60  F   KQV A 701       8.542  46.595  -0.851  1.00  0.00    -0.185 F 
ATOM     61  F1  KQV A 701       9.784  46.462   0.812  1.00  0.00    -0.185 F 
BRANCH  59  62
ATOM     62  P   KQV A 701      10.256  44.563  -1.039  1.00  0.00     0.339 P 
ATOM     63  O1  KQV A 701      11.331  44.096  -0.031  1.00  0.00    -0.635 OA
ATOM     64  O   KQV A 701       8.967  43.761  -0.779  1.00  0.00    -0.635 OA
ATOM     65  O2  KQV A 701      10.708  44.480  -2.463  1.00  0.00    -0.635 OA
ENDBRANCH  59  62
ENDBRANCH  57  59
ENDBRANCH  46  49
ENDBRANCH   1  45
TORSDOF 13
ENDMDL
MODEL 4
REMARK VINA RESULT:    -6.842      2.731      5.543
REMARK INTER + INTRA:         -14.381
REMARK INTER:                 -10.286
REMARK INTRA:                  -4.095
REMARK UNBOUND:                -2.339
REMARK  13 active torsions:
REMARK  status: ('A' for Active; 'I' for Inactive)
REMARK    1  A    between atoms: C1_1  and  C_13 
REMARK    2  A    between atoms: C5_5  and  C6_6 
REMARK       I    between atoms: C6_6  and  N1_10 
REMARK    3  A    between atoms: C7_7  and  N1_10 
REMARK    4  A    between atoms: C_13  and  P_20 
REMARK       I    between atoms: N6_24  and  C34_25 
REMARK    5  A    between atoms: C9_34  and  C10_35 
REMARK       I    between atoms: C10_35  and  N3_37 
REMARK    6  A    between atoms: N3_37  and  C11_38 
REMARK    7  A    between atoms: C11_38  and  C15_44 
REMARK    8  A    between atoms: C11_38  and  C12_39 
REMARK    9  A    between atoms: C12_39  and  C13_40 
REMARK   10  A    between atoms: C13_40  and  C14_41 
REMARK       I    between atoms: C14_41  and  N4_43 
REMARK       I    between atoms: C15_44  and  N5_46 
REMARK   11  A    between atoms: N5_46  and  C16_47 
REMARK   12  A    between atoms: C16_47  and  C17_54 
REMARK   13  A    between atoms: C16_47  and  C23_48 
ROOT
ATOM      1  C7  KQV A 701      14.431  54.836  -1.500  1.00  0.00     0.195 C 
ATOM      2  C8  KQV A 701      14.097  55.606  -0.193  1.00  0.00     0.245 C 
ATOM      3  N2  KQV A 701      15.166  56.460   0.375  1.00  0.00    -0.332 N 
ATOM      4  C36 KQV A 701      14.424  55.857  -2.688  1.00  0.00     0.160 C 
ATOM      5  N6  KQV A 701      15.835  56.368  -2.983  1.00  0.00    -0.350 N 
ATOM      6  C34 KQV A 701      16.666  55.821  -3.914  1.00  0.00     0.215 C 
ATOM      7  O6  KQV A 701      16.986  56.446  -4.915  1.00  0.00    -0.274 OA
ATOM      8  C35 KQV A 701      17.209  54.444  -3.663  1.00  0.00     0.117 C 
ATOM      9  C33 KQV A 701      16.258  57.576  -2.261  1.00  0.00     0.128 C 
ATOM     10  C32 KQV A 701      17.091  57.333  -1.018  1.00  0.00     0.045 C 
ATOM     11  C31 KQV A 701      16.609  56.352   0.062  1.00  0.00     0.089 C 
ATOM     12  O7  KQV A 701      13.003  55.513   0.339  1.00  0.00    -0.271 OA
ATOM     13  C30 KQV A 701      17.251  56.522   1.440  1.00  0.00     0.028 C 
ATOM     14  C29 KQV A 701      16.281  57.445   2.190  1.00  0.00     0.037 C 
ATOM     15  C9  KQV A 701      14.906  56.960   1.728  1.00  0.00     0.179 C 
ENDROOT
BRANCH  15  16
ATOM     16  C10 KQV A 701      13.872  58.082   1.751  1.00  0.00     0.241 C 
ATOM     17  O5  KQV A 701      12.885  58.019   2.483  1.00  0.00    -0.271 OA
ATOM     18  N3  KQV A 701      14.138  59.119   0.948  1.00  0.00    -0.346 N 
ATOM     19  H   KQV A 701      14.912  59.054   0.343  1.00  0.00     0.163 HD
BRANCH  18  20
ATOM     20  C11 KQV A 701      13.343  60.336   0.922  1.00  0.00     0.177 C 
BRANCH  20  21
ATOM     21  C15 KQV A 701      12.370  60.388  -0.257  1.00  0.00     0.241 C 
ATOM     22  N5  KQV A 701      12.772  59.809  -1.400  1.00  0.00    -0.347 N 
ATOM     23  H   KQV A 701      13.615  59.300  -1.401  1.00  0.00     0.163 HD
ATOM     24  O4  KQV A 701      11.285  60.955  -0.131  1.00  0.00    -0.271 OA
BRANCH  22  25
ATOM     25  C16 KQV A 701      12.002  59.907  -2.647  1.00  0.00     0.151 C 
BRANCH  25  26
ATOM     26  C17 KQV A 701      11.212  58.641  -2.954  1.00  0.00    -0.031 A 
ATOM     27  C18 KQV A 701      10.403  58.558  -4.082  1.00  0.00     0.009 A 
ATOM     28  C19 KQV A 701       9.625  57.431  -4.313  1.00  0.00     0.001 A 
ATOM     29  C20 KQV A 701       9.655  56.372  -3.425  1.00  0.00     0.000 A 
ATOM     30  C21 KQV A 701      10.463  56.440  -2.306  1.00  0.00     0.001 A 
ATOM     31  C22 KQV A 701      11.238  57.567  -2.073  1.00  0.00     0.009 A 
ENDBRANCH  25  26
BRANCH  25  32
ATOM     32  C23 KQV A 701      12.820  60.424  -3.827  1.00  0.00    -0.031 A 
ATOM     33  C28 KQV A 701      12.582  61.682  -4.370  1.00  0.00     0.009 A 
ATOM     34  C27 KQV A 701      13.277  62.113  -5.491  1.00  0.00     0.001 A 
ATOM     35  C26 KQV A 701      14.223  61.294  -6.080  1.00  0.00     0.000 A 
ATOM     36  C25 KQV A 701      14.478  60.047  -5.542  1.00  0.00     0.001 A 
ATOM     37  C24 KQV A 701      13.785  59.616  -4.421  1.00  0.00     0.009 A 
ENDBRANCH  25  32
ENDBRANCH  22  25
ENDBRANCH  20  21
BRANCH  20  38
ATOM     38  C12 KQV A 701      14.246  61.572   0.931  1.00  0.00     0.044 C 
BRANCH  38  39
ATOM     39  C13 KQV A 701      15.708  61.264   0.591  1.00  0.00     0.105 C 
BRANCH  39  40
ATOM     40  C14 KQV A 701      16.099  61.539  -0.844  1.00  0.00     0.215 C 
ATOM     41  N4  KQV A 701      17.146  62.331  -1.018  1.00  0.00    -0.370 N 
ATOM     42  H   KQV A 701      17.614  62.707  -0.238  1.00  0.00     0.159 HD
ATOM     43  H   KQV A 701      17.457  62.543  -1.928  1.00  0.00     0.159 HD
ATOM     44  O3  KQV A 701      15.476  61.040  -1.785  1.00  0.00    -0.274 OA
ENDBRANCH  39  40
ENDBRANCH  38  39
ENDBRANCH  20  38
ENDBRANCH  18  20
ENDBRANCH  15  16
BRANCH   1  45
ATOM     45  N1  KQV A 701      13.715  53.573  -1.607  1.00  0.00    -0.341 N 
ATOM     46  C6  KQV A 701      13.853  52.682  -2.608  1.00  0.00     0.269 C 
ATOM     47  O8  KQV A 701      14.399  52.942  -3.682  1.00  0.00    -0.266 OA
ATOM     48  H   KQV A 701      13.079  53.352  -0.888  1.00  0.00     0.163 HD
BRANCH  46  49
ATOM     49  C5  KQV A 701      13.304  51.330  -2.339  1.00  0.00     0.102 A 
ATOM     50  N   KQV A 701      14.068  50.196  -2.149  1.00  0.00    -0.351 N 
ATOM     51  C4  KQV A 701      13.226  49.134  -1.859  1.00  0.00     0.043 A 
ATOM     52  H   KQV A 701      15.050  50.149  -2.209  1.00  0.00     0.166 HD
ATOM     53  C3  KQV A 701      11.905  49.618  -1.870  1.00  0.00    -0.006 A 
ATOM     54  C38 KQV A 701      13.514  47.801  -1.569  1.00  0.00     0.031 A 
ATOM     55  C2  KQV A 701      10.870  48.734  -1.570  1.00  0.00     0.027 A 
ATOM     56  C37 KQV A 701      11.979  51.013  -2.181  1.00  0.00     0.049 A 
ATOM     57  C1  KQV A 701      11.130  47.404  -1.253  1.00  0.00     0.028 A 
ATOM     58  C39 KQV A 701      12.453  46.950  -1.270  1.00  0.00     0.016 A 
BRANCH  57  59
ATOM     59  C   KQV A 701       9.916  46.563  -0.800  1.00  0.00     0.380 C 
ATOM     60  F   KQV A 701       8.799  46.938  -1.476  1.00  0.00    -0.185 F 
ATOM     61  F1  KQV A 701       9.548  46.876   0.463  1.00  0.00    -0.185 F 
BRANCH  59  62
ATOM     62  P   KQV A 701      10.187  44.712  -1.008  1.00  0.00     0.339 P 
ATOM     63  O1  KQV A 701      10.653  44.532  -2.471  1.00  0.00    -0.635 OA
ATOM     64  O   KQV A 701      11.370  44.380  -0.079  1.00  0.00    -0.635 OA
ATOM     65  O2  KQV A 701       8.959  43.923  -0.680  1.00  0.00    -0.635 OA
ENDBRANCH  59  62
ENDBRANCH  57  59
ENDBRANCH  46  49
ENDBRANCH   1  45
TORSDOF 13
ENDMDL
MODEL 5
REMARK VINA RESULT:    -6.801      1.733      3.083
REMARK INTER + INTRA:         -14.308
REMARK INTER:                 -10.534
REMARK INTRA:                  -3.774
REMARK UNBOUND:                -2.339
REMARK  13 active torsions:
REMARK  status: ('A' for Active; 'I' for Inactive)
REMARK    1  A    between atoms: C1_1  and  C_13 
REMARK    2  A    between atoms: C5_5  and  C6_6 
REMARK       I    between atoms: C6_6  and  N1_10 
REMARK    3  A    between atoms: C7_7  and  N1_10 
REMARK    4  A    between atoms: C_13  and  P_20 
REMARK       I    between atoms: N6_24  and  C34_25 
REMARK    5  A    between atoms: C9_34  and  C10_35 
REMARK       I    between atoms: C10_35  and  N3_37 
REMARK    6  A    between atoms: N3_37  and  C11_38 
REMARK    7  A    between atoms: C11_38  and  C15_44 
REMARK    8  A    between atoms: C11_38  and  C12_39 
REMARK    9  A    between atoms: C12_39  and  C13_40 
REMARK   10  A    between atoms: C13_40  and  C14_41 
REMARK       I    between atoms: C14_41  and  N4_43 
REMARK       I    between atoms: C15_44  and  N5_46 
REMARK   11  A    between atoms: N5_46  and  C16_47 
REMARK   12  A    between atoms: C16_47  and  C17_54 
REMARK   13  A    between atoms: C16_47  and  C23_48 
ROOT
ATOM      1  C7  KQV A 701      11.677  55.720  -2.424  1.00  0.00     0.195 C 
ATOM      2  C8  KQV A 701      12.443  56.019  -1.106  1.00  0.00     0.245 C 
ATOM      3  N2  KQV A 701      13.331  57.205  -1.099  1.00  0.00    -0.332 N 
ATOM      4  C36 KQV A 701      10.509  56.754  -2.559  1.00  0.00     0.160 C 
ATOM      5  N6  KQV A 701      10.926  57.946  -3.423  1.00  0.00    -0.350 N 
ATOM      6  C34 KQV A 701      10.696  58.035  -4.764  1.00  0.00     0.215 C 
ATOM      7  O6  KQV A 701       9.926  58.872  -5.214  1.00  0.00    -0.274 OA
ATOM      8  C35 KQV A 701      11.438  57.103  -5.677  1.00  0.00     0.117 C 
ATOM      9  C33 KQV A 701      11.533  59.084  -2.719  1.00  0.00     0.128 C 
ATOM     10  C32 KQV A 701      13.048  59.122  -2.729  1.00  0.00     0.045 C 
ATOM     11  C31 KQV A 701      13.860  57.889  -2.301  1.00  0.00     0.089 C 
ATOM     12  O7  KQV A 701      12.317  55.309  -0.122  1.00  0.00    -0.271 OA
ATOM     13  C30 KQV A 701      15.311  58.161  -1.903  1.00  0.00     0.028 C 
ATOM     14  C29 KQV A 701      15.250  58.348  -0.381  1.00  0.00     0.037 C 
ATOM     15  C9  KQV A 701      14.222  57.305   0.060  1.00  0.00     0.179 C 
ENDROOT
BRANCH  15  16
ATOM     16  C10 KQV A 701      13.490  57.732   1.329  1.00  0.00     0.241 C 
ATOM     17  O5  KQV A 701      12.374  58.247   1.274  1.00  0.00    -0.271 OA
ATOM     18  N3  KQV A 701      14.139  57.482   2.472  1.00  0.00    -0.346 N 
ATOM     19  H   KQV A 701      15.058  57.134   2.421  1.00  0.00     0.163 HD
BRANCH  18  20
ATOM     20  C11 KQV A 701      13.557  57.699   3.787  1.00  0.00     0.177 C 
BRANCH  20  21
ATOM     21  C15 KQV A 701      13.230  59.168   4.060  1.00  0.00     0.241 C 
ATOM     22  N5  KQV A 701      13.601  60.054   3.122  1.00  0.00    -0.347 N 
ATOM     23  H   KQV A 701      13.969  59.719   2.273  1.00  0.00     0.163 HD
ATOM     24  O4  KQV A 701      12.667  59.486   5.107  1.00  0.00    -0.271 OA
BRANCH  22  25
ATOM     25  C16 KQV A 701      13.478  61.506   3.316  1.00  0.00     0.151 C 
BRANCH  25  26
ATOM     26  C17 KQV A 701      13.278  62.262   2.008  1.00  0.00    -0.031 A 
ATOM     27  C18 KQV A 701      13.326  63.651   1.969  1.00  0.00     0.009 A 
ATOM     28  C19 KQV A 701      13.065  64.334   0.790  1.00  0.00     0.001 A 
ATOM     29  C20 KQV A 701      12.763  63.638  -0.366  1.00  0.00     0.000 A 
ATOM     30  C21 KQV A 701      12.721  62.257  -0.341  1.00  0.00     0.001 A 
ATOM     31  C22 KQV A 701      12.980  61.572   0.839  1.00  0.00     0.009 A 
ENDBRANCH  25  26
BRANCH  25  32
ATOM     32  C23 KQV A 701      14.568  62.094   4.206  1.00  0.00    -0.031 A 
ATOM     33  C28 KQV A 701      15.914  61.946   3.886  1.00  0.00     0.009 A 
ATOM     34  C27 KQV A 701      16.901  62.417   4.741  1.00  0.00     0.001 A 
ATOM     35  C26 KQV A 701      16.556  63.045   5.923  1.00  0.00     0.000 A 
ATOM     36  C25 KQV A 701      15.222  63.211   6.246  1.00  0.00     0.001 A 
ATOM     37  C24 KQV A 701      14.235  62.742   5.391  1.00  0.00     0.009 A 
ENDBRANCH  25  32
ENDBRANCH  22  25
ENDBRANCH  20  21
BRANCH  20  38
ATOM     38  C12 KQV A 701      14.467  57.137   4.882  1.00  0.00     0.044 C 
BRANCH  38  39
ATOM     39  C13 KQV A 701      15.661  58.041   5.208  1.00  0.00     0.105 C 
BRANCH  39  40
ATOM     40  C14 KQV A 701      16.814  57.945   4.234  1.00  0.00     0.215 C 
ATOM     41  N4  KQV A 701      17.772  58.849   4.378  1.00  0.00    -0.370 N 
ATOM     42  H   KQV A 701      17.701  59.533   5.082  1.00  0.00     0.159 HD
ATOM     43  H   KQV A 701      18.554  58.837   3.781  1.00  0.00     0.159 HD
ATOM     44  O3  KQV A 701      16.852  57.066   3.369  1.00  0.00    -0.274 OA
ENDBRANCH  39  40
ENDBRANCH  38  39
ENDBRANCH  20  38
ENDBRANCH  18  20
ENDBRANCH  15  16
BRANCH   1  45
ATOM     45  N1  KQV A 701      11.433  54.299  -2.622  1.00  0.00    -0.341 N 
ATOM     46  C6  KQV A 701      12.385  53.360  -2.788  1.00  0.00     0.269 C 
ATOM     47  O8  KQV A 701      13.560  53.621  -3.054  1.00  0.00    -0.266 OA
ATOM     48  H   KQV A 701      10.495  53.999  -2.636  1.00  0.00     0.163 HD
BRANCH  46  49
ATOM     49  C5  KQV A 701      11.934  51.957  -2.620  1.00  0.00     0.102 A 
ATOM     50  N   KQV A 701      10.739  51.453  -3.095  1.00  0.00    -0.351 N 
ATOM     51  C4  KQV A 701      10.683  50.098  -2.814  1.00  0.00     0.043 A 
ATOM     52  H   KQV A 701      10.041  51.973  -3.556  1.00  0.00     0.166 HD
ATOM     53  C3  KQV A 701      11.871  49.747  -2.148  1.00  0.00    -0.006 A 
ATOM     54  C38 KQV A 701       9.701  49.151  -3.106  1.00  0.00     0.031 A 
ATOM     55  C2  KQV A 701      12.064  48.415  -1.787  1.00  0.00     0.027 A 
ATOM     56  C37 KQV A 701      12.647  50.944  -2.032  1.00  0.00     0.049 A 
ATOM     57  C1  KQV A 701      11.113  47.444  -2.088  1.00  0.00     0.028 A 
ATOM     58  C39 KQV A 701       9.933  47.829  -2.734  1.00  0.00     0.016 A 
BRANCH  57  59
ATOM     59  C   KQV A 701      11.505  45.986  -1.767  1.00  0.00     0.380 C 
ATOM     60  F   KQV A 701      12.716  45.943  -1.152  1.00  0.00    -0.185 F 
ATOM     61  F1  KQV A 701      11.785  45.294  -2.895  1.00  0.00    -0.185 F 
BRANCH  59  62
ATOM     62  P   KQV A 701      10.229  45.099  -0.705  1.00  0.00     0.339 P 
ATOM     63  O1  KQV A 701      11.001  43.949  -0.017  1.00  0.00    -0.635 OA
ATOM     64  O   KQV A 701       9.830  46.126   0.372  1.00  0.00    -0.635 OA
ATOM     65  O2  KQV A 701       9.059  44.624  -1.509  1.00  0.00    -0.635 OA
ENDBRANCH  59  62
ENDBRANCH  57  59
ENDBRANCH  46  49
ENDBRANCH   1  45
TORSDOF 13
ENDMDL
MODEL 6
REMARK VINA RESULT:    -6.760      1.471      1.928
REMARK INTER + INTRA:         -14.237
REMARK INTER:                 -11.890
REMARK INTRA:                  -2.348
REMARK UNBOUND:                -2.339
REMARK  13 active torsions:
REMARK  status: ('A' for Active; 'I' for Inactive)
REMARK    1  A    between atoms: C1_1  and  C_13 
REMARK    2  A    between atoms: C5_5  and  C6_6 
REMARK       I    between atoms: C6_6  and  N1_10 
REMARK    3  A    between atoms: C7_7  and  N1_10 
REMARK    4  A    between atoms: C_13  and  P_20 
REMARK       I    between atoms: N6_24  and  C34_25 
REMARK    5  A    between atoms: C9_34  and  C10_35 
REMARK       I    between atoms: C10_35  and  N3_37 
REMARK    6  A    between atoms: N3_37  and  C11_38 
REMARK    7  A    between atoms: C11_38  and  C15_44 
REMARK    8  A    between atoms: C11_38  and  C12_39 
REMARK    9  A    between atoms: C12_39  and  C13_40 
REMARK   10  A    between atoms: C13_40  and  C14_41 
REMARK       I    between atoms: C14_41  and  N4_43 
REMARK       I    between atoms: C15_44  and  N5_46 
REMARK   11  A    between atoms: N5_46  and  C16_47 
REMARK   12  A    between atoms: C16_47  and  C17_54 
REMARK   13  A    between atoms: C16_47  and  C23_48 
ROOT
ATOM      1  C7  KQV A 701      11.776  55.388  -2.436  1.00  0.00     0.195 C 
ATOM      2  C8  KQV A 701      13.102  55.471  -1.630  1.00  0.00     0.245 C 
ATOM      3  N2  KQV A 701      14.018  56.587  -1.957  1.00  0.00    -0.332 N 
ATOM      4  C36 KQV A 701      10.811  56.503  -1.909  1.00  0.00     0.160 C 
ATOM      5  N6  KQV A 701      10.906  57.765  -2.769  1.00  0.00    -0.350 N 
ATOM      6  C34 KQV A 701      10.082  58.036  -3.821  1.00  0.00     0.215 C 
ATOM      7  O6  KQV A 701       9.294  58.969  -3.778  1.00  0.00    -0.274 OA
ATOM      8  C35 KQV A 701      10.193  57.180  -5.050  1.00  0.00     0.117 C 
ATOM      9  C33 KQV A 701      11.900  58.766  -2.356  1.00  0.00     0.128 C 
ATOM     10  C32 KQV A 701      13.224  58.707  -3.091  1.00  0.00     0.045 C 
ATOM     11  C31 KQV A 701      13.993  57.381  -3.206  1.00  0.00     0.089 C 
ATOM     12  O7  KQV A 701      13.373  54.653  -0.767  1.00  0.00    -0.271 OA
ATOM     13  C30 KQV A 701      15.481  57.510  -3.537  1.00  0.00     0.028 C 
ATOM     14  C29 KQV A 701      16.167  57.507  -2.164  1.00  0.00     0.037 C 
ATOM     15  C9  KQV A 701      15.355  56.485  -1.367  1.00  0.00     0.179 C 
ENDROOT
BRANCH  15  16
ATOM     16  C10 KQV A 701      15.363  56.795   0.127  1.00  0.00     0.241 C 
ATOM     17  O5  KQV A 701      16.420  56.896   0.747  1.00  0.00    -0.271 OA
ATOM     18  N3  KQV A 701      14.157  56.967   0.681  1.00  0.00    -0.346 N 
ATOM     19  H   KQV A 701      13.361  56.796   0.126  1.00  0.00     0.163 HD
BRANCH  18  20
ATOM     20  C11 KQV A 701      13.960  57.391   2.057  1.00  0.00     0.177 C 
BRANCH  20  21
ATOM     21  C15 KQV A 701      14.409  58.832   2.307  1.00  0.00     0.241 C 
ATOM     22  N5  KQV A 701      13.479  59.789   2.158  1.00  0.00    -0.347 N 
ATOM     23  H   KQV A 701      12.545  59.521   1.997  1.00  0.00     0.163 HD
ATOM     24  O4  KQV A 701      15.577  59.065   2.613  1.00  0.00    -0.271 OA
BRANCH  22  25
ATOM     25  C16 KQV A 701      13.803  61.221   2.227  1.00  0.00     0.151 C 
BRANCH  25  26
ATOM     26  C17 KQV A 701      13.155  61.916   3.418  1.00  0.00    -0.031 A 
ATOM     27  C18 KQV A 701      12.462  61.191   4.381  1.00  0.00     0.009 A 
ATOM     28  C19 KQV A 701      11.808  61.839   5.420  1.00  0.00     0.001 A 
ATOM     29  C20 KQV A 701      11.848  63.218   5.515  1.00  0.00     0.000 A 
ATOM     30  C21 KQV A 701      12.542  63.949   4.569  1.00  0.00     0.001 A 
ATOM     31  C22 KQV A 701      13.194  63.301   3.528  1.00  0.00     0.009 A 
ENDBRANCH  25  26
BRANCH  25  32
ATOM     32  C23 KQV A 701      13.604  61.954   0.904  1.00  0.00    -0.031 A 
ATOM     33  C28 KQV A 701      12.437  61.793   0.163  1.00  0.00     0.009 A 
ATOM     34  C27 KQV A 701      12.297  62.402  -1.076  1.00  0.00     0.001 A 
ATOM     35  C26 KQV A 701      13.316  63.182  -1.588  1.00  0.00     0.000 A 
ATOM     36  C25 KQV A 701      14.474  63.361  -0.855  1.00  0.00     0.001 A 
ATOM     37  C24 KQV A 701      14.616  62.754   0.384  1.00  0.00     0.009 A 
ENDBRANCH  25  32
ENDBRANCH  22  25
ENDBRANCH  20  21
BRANCH  20  38
ATOM     38  C12 KQV A 701      14.659  56.433   3.025  1.00  0.00     0.044 C 
BRANCH  38  39
ATOM     39  C13 KQV A 701      13.722  55.843   4.084  1.00  0.00     0.105 C 
BRANCH  39  40
ATOM     40  C14 KQV A 701      14.403  54.982   5.125  1.00  0.00     0.215 C 
ATOM     41  N4  KQV A 701      14.197  53.677   5.023  1.00  0.00    -0.370 N 
ATOM     42  H   KQV A 701      13.622  53.324   4.306  1.00  0.00     0.159 HD
ATOM     43  H   KQV A 701      14.618  53.061   5.664  1.00  0.00     0.159 HD
ATOM     44  O3  KQV A 701      15.114  55.478   6.003  1.00  0.00    -0.274 OA
ENDBRANCH  39  40
ENDBRANCH  38  39
ENDBRANCH  20  38
ENDBRANCH  18  20
ENDBRANCH  15  16
BRANCH   1  45
ATOM     45  N1  KQV A 701      11.304  54.021  -2.604  1.00  0.00    -0.341 N 
ATOM     46  C6  KQV A 701      11.807  53.125  -3.475  1.00  0.00     0.269 C 
ATOM     47  O8  KQV A 701      12.547  53.428  -4.413  1.00  0.00    -0.266 OA
ATOM     48  H   KQV A 701      10.556  53.728  -2.034  1.00  0.00     0.163 HD
BRANCH  46  49
ATOM     49  C5  KQV A 701      11.420  51.714  -3.234  1.00  0.00     0.102 A 
ATOM     50  N   KQV A 701      10.268  51.122  -3.714  1.00  0.00    -0.351 N 
ATOM     51  C4  KQV A 701      10.269  49.785  -3.350  1.00  0.00     0.043 A 
ATOM     52  H   KQV A 701       9.563  51.576  -4.230  1.00  0.00     0.166 HD
ATOM     53  C3  KQV A 701      11.448  49.537  -2.625  1.00  0.00    -0.006 A 
ATOM     54  C38 KQV A 701       9.346  48.773  -3.614  1.00  0.00     0.031 A 
ATOM     55  C2  KQV A 701      11.694  48.241  -2.175  1.00  0.00     0.027 A 
ATOM     56  C37 KQV A 701      12.161  50.777  -2.561  1.00  0.00     0.049 A 
ATOM     57  C1  KQV A 701      10.803  47.207  -2.445  1.00  0.00     0.028 A 
ATOM     58  C39 KQV A 701       9.629  47.490  -3.152  1.00  0.00     0.016 A 
BRANCH  57  59
ATOM     59  C   KQV A 701      11.254  45.792  -2.021  1.00  0.00     0.380 C 
ATOM     60  F   KQV A 701      12.549  45.810  -1.611  1.00  0.00    -0.185 F 
ATOM     61  F1  KQV A 701      11.352  44.968  -3.089  1.00  0.00    -0.185 F 
BRANCH  59  62
ATOM     62  P   KQV A 701      10.176  45.052  -0.667  1.00  0.00     0.339 P 
ATOM     63  O1  KQV A 701       8.984  44.402  -1.407  1.00  0.00    -0.635 OA
ATOM     64  O   KQV A 701      11.033  43.931  -0.050  1.00  0.00    -0.635 OA
ATOM     65  O2  KQV A 701       9.756  46.076   0.340  1.00  0.00    -0.635 OA
ENDBRANCH  59  62
ENDBRANCH  57  59
ENDBRANCH  46  49
ENDBRANCH   1  45
TORSDOF 13
ENDMDL
MODEL 7
REMARK VINA RESULT:    -6.664      1.949      4.341
REMARK INTER + INTRA:         -14.068
REMARK INTER:                 -11.342
REMARK INTRA:                  -2.726
REMARK UNBOUND:                -2.339
REMARK  13 active torsions:
REMARK  status: ('A' for Active; 'I' for Inactive)
REMARK    1  A    between atoms: C1_1  and  C_13 
REMARK    2  A    between atoms: C5_5  and  C6_6 
REMARK       I    between atoms: C6_6  and  N1_10 
REMARK    3  A    between atoms: C7_7  and  N1_10 
REMARK    4  A    between atoms: C_13  and  P_20 
REMARK       I    between atoms: N6_24  and  C34_25 
REMARK    5  A    between atoms: C9_34  and  C10_35 
REMARK       I    between atoms: C10_35  and  N3_37 
REMARK    6  A    between atoms: N3_37  and  C11_38 
REMARK    7  A    between atoms: C11_38  and  C15_44 
REMARK    8  A    between atoms: C11_38  and  C12_39 
REMARK    9  A    between atoms: C12_39  and  C13_40 
REMARK   10  A    between atoms: C13_40  and  C14_41 
REMARK       I    between atoms: C14_41  and  N4_43 
REMARK       I    between atoms: C15_44  and  N5_46 
REMARK   11  A    between atoms: N5_46  and  C16_47 
REMARK   12  A    between atoms: C16_47  and  C17_54 
REMARK   13  A    between atoms: C16_47  and  C23_48 
ROOT
ATOM      1  C7  KQV A 701      12.369  54.933  -3.552  1.00  0.00     0.195 C 
ATOM      2  C8  KQV A 701      13.200  55.311  -2.295  1.00  0.00     0.245 C 
ATOM      3  N2  KQV A 701      14.454  56.066  -2.520  1.00  0.00    -0.332 N 
ATOM      4  C36 KQV A 701      11.649  56.224  -4.071  1.00  0.00     0.160 C 
ATOM      5  N6  KQV A 701      12.461  56.898  -5.178  1.00  0.00    -0.350 N 
ATOM      6  C34 KQV A 701      12.269  56.675  -6.510  1.00  0.00     0.215 C 
ATOM      7  O6  KQV A 701      11.849  57.561  -7.240  1.00  0.00    -0.274 OA
ATOM      8  C35 KQV A 701      12.621  55.325  -7.063  1.00  0.00     0.117 C 
ATOM      9  C33 KQV A 701      13.442  57.906  -4.751  1.00  0.00     0.128 C 
ATOM     10  C32 KQV A 701      14.868  57.412  -4.625  1.00  0.00     0.045 C 
ATOM     11  C31 KQV A 701      15.186  56.151  -3.805  1.00  0.00     0.089 C 
ATOM     12  O7  KQV A 701      12.834  55.001  -1.173  1.00  0.00    -0.271 OA
ATOM     13  C30 KQV A 701      16.641  56.006  -3.357  1.00  0.00     0.028 C 
ATOM     14  C29 KQV A 701      16.661  56.627  -1.954  1.00  0.00     0.037 C 
ATOM     15  C9  KQV A 701      15.330  56.177  -1.351  1.00  0.00     0.179 C 
ENDROOT
BRANCH  15  16
ATOM     16  C10 KQV A 701      14.809  57.174  -0.319  1.00  0.00     0.241 C 
ATOM     17  O5  KQV A 701      14.417  56.797   0.784  1.00  0.00    -0.271 OA
ATOM     18  N3  KQV A 701      14.838  58.456  -0.701  1.00  0.00    -0.346 N 
ATOM     19  H   KQV A 701      15.099  58.661  -1.628  1.00  0.00     0.163 HD
BRANCH  18  20
ATOM     20  C11 KQV A 701      14.504  59.562   0.182  1.00  0.00     0.177 C 
BRANCH  20  21
ATOM     21  C15 KQV A 701      14.981  59.343   1.619  1.00  0.00     0.241 C 
ATOM     22  N5  KQV A 701      14.051  58.978   2.515  1.00  0.00    -0.347 N 
ATOM     23  H   KQV A 701      13.142  58.773   2.198  1.00  0.00     0.163 HD
ATOM     24  O4  KQV A 701      16.164  59.519   1.904  1.00  0.00    -0.271 OA
BRANCH  22  25
ATOM     25  C16 KQV A 701      14.339  58.872   3.953  1.00  0.00     0.151 C 
BRANCH  25  26
ATOM     26  C17 KQV A 701      14.447  57.428   4.429  1.00  0.00    -0.031 A 
ATOM     27  C18 KQV A 701      15.451  57.037   5.308  1.00  0.00     0.009 A 
ATOM     28  C19 KQV A 701      15.590  55.706   5.675  1.00  0.00     0.001 A 
ATOM     29  C20 KQV A 701      14.722  54.752   5.176  1.00  0.00     0.000 A 
ATOM     30  C21 KQV A 701      13.715  55.131   4.308  1.00  0.00     0.001 A 
ATOM     31  C22 KQV A 701      13.576  56.462   3.939  1.00  0.00     0.009 A 
ENDBRANCH  25  26
BRANCH  25  32
ATOM     32  C23 KQV A 701      13.433  59.740   4.820  1.00  0.00    -0.031 A 
ATOM     33  C28 KQV A 701      13.082  59.349   6.108  1.00  0.00     0.009 A 
ATOM     34  C27 KQV A 701      12.196  60.106   6.861  1.00  0.00     0.001 A 
ATOM     35  C26 KQV A 701      11.653  61.265   6.339  1.00  0.00     0.000 A 
ATOM     36  C25 KQV A 701      12.004  61.671   5.065  1.00  0.00     0.001 A 
ATOM     37  C24 KQV A 701      12.891  60.916   4.312  1.00  0.00     0.009 A 
ENDBRANCH  25  32
ENDBRANCH  22  25
ENDBRANCH  20  21
BRANCH  20  38
ATOM     38  C12 KQV A 701      13.000  59.845   0.150  1.00  0.00     0.044 C 
BRANCH  38  39
ATOM     39  C13 KQV A 701      12.589  60.851  -0.931  1.00  0.00     0.105 C 
BRANCH  39  40
ATOM     40  C14 KQV A 701      12.340  62.256  -0.430  1.00  0.00     0.215 C 
ATOM     41  N4  KQV A 701      12.251  62.396   0.884  1.00  0.00    -0.370 N 
ATOM     42  H   KQV A 701      12.338  61.609   1.470  1.00  0.00     0.159 HD
ATOM     43  H   KQV A 701      12.099  63.286   1.275  1.00  0.00     0.159 HD
ATOM     44  O3  KQV A 701      12.240  63.207  -1.210  1.00  0.00    -0.274 OA
ENDBRANCH  39  40
ENDBRANCH  38  39
ENDBRANCH  20  38
ENDBRANCH  18  20
ENDBRANCH  15  16
BRANCH   1  45
ATOM     45  N1  KQV A 701      11.629  53.691  -3.384  1.00  0.00    -0.341 N 
ATOM     46  C6  KQV A 701      11.962  52.506  -3.930  1.00  0.00     0.269 C 
ATOM     47  O8  KQV A 701      12.779  52.382  -4.845  1.00  0.00    -0.266 OA
ATOM     48  H   KQV A 701      10.818  53.720  -2.825  1.00  0.00     0.163 HD
BRANCH  46  49
ATOM     49  C5  KQV A 701      11.282  51.321  -3.350  1.00  0.00     0.102 A 
ATOM     50  N   KQV A 701      10.257  50.627  -3.961  1.00  0.00    -0.351 N 
ATOM     51  C4  KQV A 701       9.913  49.547  -3.165  1.00  0.00     0.043 A 
ATOM     52  H   KQV A 701       9.839  50.861  -4.822  1.00  0.00     0.166 HD
ATOM     53  C3  KQV A 701      10.743  49.569  -2.029  1.00  0.00    -0.006 A 
ATOM     54  C38 KQV A 701       8.960  48.546  -3.355  1.00  0.00     0.031 A 
ATOM     55  C2  KQV A 701      10.607  48.552  -1.085  1.00  0.00     0.027 A 
ATOM     56  C37 KQV A 701      11.600  50.706  -2.167  1.00  0.00     0.049 A 
ATOM     57  C1  KQV A 701       9.682  47.527  -1.262  1.00  0.00     0.028 A 
ATOM     58  C39 KQV A 701       8.859  47.545  -2.393  1.00  0.00     0.016 A 
BRANCH  57  59
ATOM     59  C   KQV A 701       9.727  46.385  -0.223  1.00  0.00     0.380 C 
ATOM     60  F   KQV A 701       8.527  46.264   0.401  1.00  0.00    -0.185 F 
ATOM     61  F1  KQV A 701      10.513  46.709   0.828  1.00  0.00    -0.185 F 
BRANCH  59  62
ATOM     62  P   KQV A 701      10.215  44.729  -0.974  1.00  0.00     0.339 P 
ATOM     63  O1  KQV A 701       8.880  44.026  -1.310  1.00  0.00    -0.635 OA
ATOM     64  O   KQV A 701      10.920  45.088  -2.296  1.00  0.00    -0.635 OA
ATOM     65  O2  KQV A 701      11.086  43.930  -0.056  1.00  0.00    -0.635 OA
ENDBRANCH  59  62
ENDBRANCH  57  59
ENDBRANCH  46  49
ENDBRANCH   1  45
TORSDOF 13
ENDMDL
MODEL 8
REMARK VINA RESULT:    -6.502      1.521      3.079
REMARK INTER + INTRA:         -13.782
REMARK INTER:                 -10.565
REMARK INTRA:                  -3.218
REMARK UNBOUND:                -2.339
REMARK  13 active torsions:
REMARK  status: ('A' for Active; 'I' for Inactive)
REMARK    1  A    between atoms: C1_1  and  C_13 
REMARK    2  A    between atoms: C5_5  and  C6_6 
REMARK       I    between atoms: C6_6  and  N1_10 
REMARK    3  A    between atoms: C7_7  and  N1_10 
REMARK    4  A    between atoms: C_13  and  P_20 
REMARK       I    between atoms: N6_24  and  C34_25 
REMARK    5  A    between atoms: C9_34  and  C10_35 
REMARK       I    between atoms: C10_35  and  N3_37 
REMARK    6  A    between atoms: N3_37  and  C11_38 
REMARK    7  A    between atoms: C11_38  and  C15_44 
REMARK    8  A    between atoms: C11_38  and  C12_39 
REMARK    9  A    between atoms: C12_39  and  C13_40 
REMARK   10  A    between atoms: C13_40  and  C14_41 
REMARK       I    between atoms: C14_41  and  N4_43 
REMARK       I    between atoms: C15_44  and  N5_46 
REMARK   11  A    between atoms: N5_46  and  C16_47 
REMARK   12  A    between atoms: C16_47  and  C17_54 
REMARK   13  A    between atoms: C16_47  and  C23_48 
ROOT
ATOM      1  C7  KQV A 701      11.573  55.260  -3.518  1.00  0.00     0.195 C 
ATOM      2  C8  KQV A 701      12.766  55.469  -2.544  1.00  0.00     0.245 C 
ATOM      3  N2  KQV A 701      13.814  56.428  -2.962  1.00  0.00    -0.332 N 
ATOM      4  C36 KQV A 701      10.641  56.515  -3.430  1.00  0.00     0.160 C 
ATOM      5  N6  KQV A 701      10.973  57.526  -4.530  1.00  0.00    -0.350 N 
ATOM      6  C34 KQV A 701      10.344  57.574  -5.738  1.00  0.00     0.215 C 
ATOM      7  O6  KQV A 701       9.642  58.528  -6.043  1.00  0.00    -0.274 OA
ATOM      8  C35 KQV A 701      10.562  56.444  -6.701  1.00  0.00     0.117 C 
ATOM      9  C33 KQV A 701      11.978  58.546  -4.199  1.00  0.00     0.128 C 
ATOM     10  C32 KQV A 701      13.387  58.248  -4.670  1.00  0.00     0.045 C 
ATOM     11  C31 KQV A 701      14.046  56.898  -4.347  1.00  0.00     0.089 C 
ATOM     12  O7  KQV A 701      12.832  54.872  -1.483  1.00  0.00    -0.271 OA
ATOM     13  C30 KQV A 701      15.572  56.869  -4.446  1.00  0.00     0.028 C 
ATOM     14  C29 KQV A 701      16.041  57.165  -3.015  1.00  0.00     0.037 C 
ATOM     15  C9  KQV A 701      15.033  56.406  -2.150  1.00  0.00     0.179 C 
ENDROOT
BRANCH  15  16
ATOM     16  C10 KQV A 701      14.844  57.067  -0.788  1.00  0.00     0.241 C 
ATOM     17  O5  KQV A 701      15.047  58.270  -0.634  1.00  0.00    -0.271 OA
ATOM     18  N3  KQV A 701      14.428  56.252   0.188  1.00  0.00    -0.346 N 
ATOM     19  H   KQV A 701      14.360  55.289  -0.005  1.00  0.00     0.163 HD
BRANCH  18  20
ATOM     20  C11 KQV A 701      14.070  56.714   1.520  1.00  0.00     0.177 C 
BRANCH  20  21
ATOM     21  C15 KQV A 701      13.234  57.994   1.502  1.00  0.00     0.241 C 
ATOM     22  N5  KQV A 701      13.764  59.071   2.105  1.00  0.00    -0.347 N 
ATOM     23  H   KQV A 701      14.689  59.020   2.438  1.00  0.00     0.163 HD
ATOM     24  O4  KQV A 701      12.128  57.996   0.964  1.00  0.00    -0.271 OA
BRANCH  22  25
ATOM     25  C16 KQV A 701      13.014  60.322   2.287  1.00  0.00     0.151 C 
BRANCH  25  26
ATOM     26  C17 KQV A 701      13.291  61.341   1.189  1.00  0.00    -0.031 A 
ATOM     27  C18 KQV A 701      12.303  61.698   0.277  1.00  0.00     0.009 A 
ATOM     28  C19 KQV A 701      12.586  62.567  -0.767  1.00  0.00     0.001 A 
ATOM     29  C20 KQV A 701      13.855  63.098  -0.907  1.00  0.00     0.000 A 
ATOM     30  C21 KQV A 701      14.842  62.758  -0.001  1.00  0.00     0.001 A 
ATOM     31  C22 KQV A 701      14.561  61.887   1.043  1.00  0.00     0.009 A 
ENDBRANCH  25  26
BRANCH  25  32
ATOM     32  C23 KQV A 701      13.119  60.893   3.698  1.00  0.00    -0.031 A 
ATOM     33  C28 KQV A 701      12.303  61.941   4.110  1.00  0.00     0.009 A 
ATOM     34  C27 KQV A 701      12.457  62.506   5.369  1.00  0.00     0.001 A 
ATOM     35  C26 KQV A 701      13.425  62.027   6.232  1.00  0.00     0.000 A 
ATOM     36  C25 KQV A 701      14.232  60.977   5.839  1.00  0.00     0.001 A 
ATOM     37  C24 KQV A 701      14.078  60.411   4.582  1.00  0.00     0.009 A 
ENDBRANCH  25  32
ENDBRANCH  22  25
ENDBRANCH  20  21
BRANCH  20  38
ATOM     38  C12 KQV A 701      15.321  56.898   2.383  1.00  0.00     0.044 C 
BRANCH  38  39
ATOM     39  C13 KQV A 701      15.402  55.918   3.558  1.00  0.00     0.105 C 
BRANCH  39  40
ATOM     40  C14 KQV A 701      14.112  55.737   4.326  1.00  0.00     0.215 C 
ATOM     41  N4  KQV A 701      13.663  54.495   4.421  1.00  0.00    -0.370 N 
ATOM     42  H   KQV A 701      14.160  53.758   3.998  1.00  0.00     0.159 HD
ATOM     43  H   KQV A 701      12.832  54.308   4.915  1.00  0.00     0.159 HD
ATOM     44  O3  KQV A 701      13.530  56.698   4.836  1.00  0.00    -0.274 OA
ENDBRANCH  39  40
ENDBRANCH  38  39
ENDBRANCH  20  38
ENDBRANCH  18  20
ENDBRANCH  15  16
BRANCH   1  45
ATOM     45  N1  KQV A 701      11.015  53.918  -3.443  1.00  0.00    -0.341 N 
ATOM     46  C6  KQV A 701      11.559  52.816  -3.996  1.00  0.00     0.269 C 
ATOM     47  O8  KQV A 701      12.448  52.849  -4.849  1.00  0.00    -0.266 OA
ATOM     48  H   KQV A 701      10.171  53.806  -2.948  1.00  0.00     0.163 HD
BRANCH  46  49
ATOM     49  C5  KQV A 701      11.022  51.523  -3.504  1.00  0.00     0.102 A 
ATOM     50  N   KQV A 701      10.258  50.653  -4.256  1.00  0.00    -0.351 N 
ATOM     51  C4  KQV A 701       9.992  49.524  -3.498  1.00  0.00     0.043 A 
ATOM     52  H   KQV A 701       9.954  50.809  -5.180  1.00  0.00     0.166 HD
ATOM     53  C3  KQV A 701      10.602  49.695  -2.243  1.00  0.00    -0.006 A 
ATOM     54  C38 KQV A 701       9.285  48.364  -3.816  1.00  0.00     0.031 A 
ATOM     55  C2  KQV A 701      10.501  48.667  -1.307  1.00  0.00     0.027 A 
ATOM     56  C37 KQV A 701      11.247  50.973  -2.269  1.00  0.00     0.049 A 
ATOM     57  C1  KQV A 701       9.824  47.489  -1.605  1.00  0.00     0.028 A 
ATOM     58  C39 KQV A 701       9.211  47.358  -2.856  1.00  0.00     0.016 A 
BRANCH  57  59
ATOM     59  C   KQV A 701       9.905  46.370  -0.544  1.00  0.00     0.380 C 
ATOM     60  F   KQV A 701       8.811  46.400   0.261  1.00  0.00    -0.185 F 
ATOM     61  F1  KQV A 701      10.876  46.625   0.363  1.00  0.00    -0.185 F 
BRANCH  59  62
ATOM     62  P   KQV A 701      10.087  44.655  -1.297  1.00  0.00     0.339 P 
ATOM     63  O1  KQV A 701      11.112  44.821  -2.442  1.00  0.00    -0.635 OA
ATOM     64  O   KQV A 701      10.735  43.805  -0.187  1.00  0.00    -0.635 OA
ATOM     65  O2  KQV A 701       8.775  44.099  -1.755  1.00  0.00    -0.635 OA
ENDBRANCH  59  62
ENDBRANCH  57  59
ENDBRANCH  46  49
ENDBRANCH   1  45
TORSDOF 13
ENDMDL
MODEL 9
REMARK VINA RESULT:    -6.476      2.591      4.247
REMARK INTER + INTRA:         -13.737
REMARK INTER:                  -9.299
REMARK INTRA:                  -4.438
REMARK UNBOUND:                -2.339
REMARK  13 active torsions:
REMARK  status: ('A' for Active; 'I' for Inactive)
REMARK    1  A    between atoms: C1_1  and  C_13 
REMARK    2  A    between atoms: C5_5  and  C6_6 
REMARK       I    between atoms: C6_6  and  N1_10 
REMARK    3  A    between atoms: C7_7  and  N1_10 
REMARK    4  A    between atoms: C_13  and  P_20 
REMARK       I    between atoms: N6_24  and  C34_25 
REMARK    5  A    between atoms: C9_34  and  C10_35 
REMARK       I    between atoms: C10_35  and  N3_37 
REMARK    6  A    between atoms: N3_37  and  C11_38 
REMARK    7  A    between atoms: C11_38  and  C15_44 
REMARK    8  A    between atoms: C11_38  and  C12_39 
REMARK    9  A    between atoms: C12_39  and  C13_40 
REMARK   10  A    between atoms: C13_40  and  C14_41 
REMARK       I    between atoms: C14_41  and  N4_43 
REMARK       I    between atoms: C15_44  and  N5_46 
REMARK   11  A    between atoms: N5_46  and  C16_47 
REMARK   12  A    between atoms: C16_47  and  C17_54 
REMARK   13  A    between atoms: C16_47  and  C23_48 
ROOT
ATOM      1  C7  KQV A 701      13.176  54.820  -2.065  1.00  0.00     0.195 C 
ATOM      2  C8  KQV A 701      14.717  54.908  -2.245  1.00  0.00     0.245 C 
ATOM      3  N2  KQV A 701      15.231  55.993  -3.113  1.00  0.00    -0.332 N 
ATOM      4  C36 KQV A 701      12.727  55.974  -1.106  1.00  0.00     0.160 C 
ATOM      5  N6  KQV A 701      12.264  57.199  -1.898  1.00  0.00    -0.350 N 
ATOM      6  C34 KQV A 701      10.966  57.443  -2.235  1.00  0.00     0.215 C 
ATOM      7  O6  KQV A 701      10.362  58.393  -1.759  1.00  0.00    -0.274 OA
ATOM      8  C35 KQV A 701      10.308  56.538  -3.235  1.00  0.00     0.117 C 
ATOM      9  C33 KQV A 701      13.294  58.195  -2.225  1.00  0.00     0.128 C 
ATOM     10  C32 KQV A 701      13.889  58.081  -3.614  1.00  0.00     0.045 C 
ATOM     11  C31 KQV A 701      14.438  56.737  -4.118  1.00  0.00     0.089 C 
ATOM     12  O7  KQV A 701      15.467  54.120  -1.694  1.00  0.00    -0.271 OA
ATOM     13  C30 KQV A 701      15.410  56.822  -5.296  1.00  0.00     0.028 C 
ATOM     14  C29 KQV A 701      16.793  56.861  -4.632  1.00  0.00     0.037 C 
ATOM     15  C9  KQV A 701      16.650  55.887  -3.462  1.00  0.00     0.179 C 
ENDROOT
BRANCH  15  16
ATOM     16  C10 KQV A 701      17.569  56.257  -2.301  1.00  0.00     0.241 C 
ATOM     17  O5  KQV A 701      18.405  55.460  -1.878  1.00  0.00    -0.271 OA
ATOM     18  N3  KQV A 701      17.407  57.494  -1.817  1.00  0.00    -0.346 N 
ATOM     19  H   KQV A 701      16.666  58.039  -2.168  1.00  0.00     0.163 HD
BRANCH  18  20
ATOM     20  C11 KQV A 701      18.268  58.075  -0.800  1.00  0.00     0.177 C 
BRANCH  20  21
ATOM     21  C15 KQV A 701      17.491  58.631   0.394  1.00  0.00     0.241 C 
ATOM     22  N5  KQV A 701      16.172  58.818   0.222  1.00  0.00    -0.347 N 
ATOM     23  H   KQV A 701      15.754  58.502  -0.611  1.00  0.00     0.163 HD
ATOM     24  O4  KQV A 701      18.081  58.898   1.439  1.00  0.00    -0.271 OA
BRANCH  22  25
ATOM     25  C16 KQV A 701      15.330  59.476   1.232  1.00  0.00     0.151 C 
BRANCH  25  26
ATOM     26  C17 KQV A 701      14.750  58.497   2.245  1.00  0.00    -0.031 A 
ATOM     27  C18 KQV A 701      14.475  57.180   1.894  1.00  0.00     0.009 A 
ATOM     28  C19 KQV A 701      13.873  56.318   2.800  1.00  0.00     0.001 A 
ATOM     29  C20 KQV A 701      13.550  56.757   4.070  1.00  0.00     0.000 A 
ATOM     30  C21 KQV A 701      13.828  58.062   4.434  1.00  0.00     0.001 A 
ATOM     31  C22 KQV A 701      14.427  58.926   3.528  1.00  0.00     0.009 A 
ENDBRANCH  25  26
BRANCH  25  32
ATOM     32  C23 KQV A 701      14.299  60.428   0.635  1.00  0.00    -0.031 A 
ATOM     33  C28 KQV A 701      12.947  60.305   0.940  1.00  0.00     0.009 A 
ATOM     34  C27 KQV A 701      12.007  61.126   0.334  1.00  0.00     0.001 A 
ATOM     35  C26 KQV A 701      12.406  62.083  -0.581  1.00  0.00     0.000 A 
ATOM     36  C25 KQV A 701      13.747  62.225  -0.882  1.00  0.00     0.001 A 
ATOM     37  C24 KQV A 701      14.688  61.405  -0.275  1.00  0.00     0.009 A 
ENDBRANCH  25  32
ENDBRANCH  22  25
ENDBRANCH  20  21
BRANCH  20  38
ATOM     38  C12 KQV A 701      19.170  59.153  -1.406  1.00  0.00     0.044 C 
BRANCH  38  39
ATOM     39  C13 KQV A 701      18.442  60.472  -1.688  1.00  0.00     0.105 C 
BRANCH  39  40
ATOM     40  C14 KQV A 701      17.710  60.522  -3.011  1.00  0.00     0.215 C 
ATOM     41  N4  KQV A 701      18.341  61.136  -4.000  1.00  0.00    -0.370 N 
ATOM     42  H   KQV A 701      19.228  61.533  -3.846  1.00  0.00     0.159 HD
ATOM     43  H   KQV A 701      17.922  61.196  -4.889  1.00  0.00     0.159 HD
ATOM     44  O3  KQV A 701      16.597  60.007  -3.147  1.00  0.00    -0.274 OA
ENDBRANCH  39  40
ENDBRANCH  38  39
ENDBRANCH  20  38
ENDBRANCH  18  20
ENDBRANCH  15  16
BRANCH   1  45
ATOM     45  N1  KQV A 701      12.712  53.457  -1.849  1.00  0.00    -0.341 N 
ATOM     46  C6  KQV A 701      12.131  52.676  -2.779  1.00  0.00     0.269 C 
ATOM     47  O8  KQV A 701      11.684  53.103  -3.846  1.00  0.00    -0.266 OA
ATOM     48  H   KQV A 701      12.834  53.076  -0.949  1.00  0.00     0.163 HD
BRANCH  46  49
ATOM     49  C5  KQV A 701      12.063  51.231  -2.448  1.00  0.00     0.102 A 
ATOM     50  N   KQV A 701      13.159  50.399  -2.334  1.00  0.00    -0.351 N 
ATOM     51  C4  KQV A 701      12.725  49.140  -1.952  1.00  0.00     0.043 A 
ATOM     52  H   KQV A 701      14.095  50.658  -2.497  1.00  0.00     0.166 HD
ATOM     53  C3  KQV A 701      11.325  49.188  -1.826  1.00  0.00    -0.006 A 
ATOM     54  C38 KQV A 701      13.444  47.974  -1.688  1.00  0.00     0.031 A 
ATOM     55  C2  KQV A 701      10.653  48.037  -1.415  1.00  0.00     0.027 A 
ATOM     56  C37 KQV A 701      10.927  50.524  -2.150  1.00  0.00     0.049 A 
ATOM     57  C1  KQV A 701      11.347  46.867  -1.121  1.00  0.00     0.028 A 
ATOM     58  C39 KQV A 701      12.738  46.847  -1.275  1.00  0.00     0.016 A 
BRANCH  57  59
ATOM     59  C   KQV A 701      10.509  45.708  -0.538  1.00  0.00     0.380 C 
ATOM     60  F   KQV A 701       9.793  46.133   0.535  1.00  0.00    -0.185 F 
ATOM     61  F1  KQV A 701      11.298  44.782   0.052  1.00  0.00    -0.185 F 
BRANCH  59  62
ATOM     62  P   KQV A 701       9.350  44.932  -1.803  1.00  0.00     0.339 P 
ATOM     63  O1  KQV A 701      10.250  44.558  -3.003  1.00  0.00    -0.635 OA
ATOM     64  O   KQV A 701       8.860  43.631  -1.140  1.00  0.00    -0.635 OA
ATOM     65  O2  KQV A 701       8.227  45.849  -2.172  1.00  0.00    -0.635 OA
ENDBRANCH  59  62
ENDBRANCH  57  59
ENDBRANCH  46  49
ENDBRANCH   1  45
TORSDOF 13
ENDMDL
MODEL 10
REMARK VINA RESULT:    -6.321      2.330      4.584
REMARK INTER + INTRA:         -13.464
REMARK INTER:                 -10.071
REMARK INTRA:                  -3.394
REMARK UNBOUND:                -2.339
REMARK  13 active torsions:
REMARK  status: ('A' for Active; 'I' for Inactive)
REMARK    1  A    between atoms: C1_1  and  C_13 
REMARK    2  A    between atoms: C5_5  and  C6_6 
REMARK       I    between atoms: C6_6  and  N1_10 
REMARK    3  A    between atoms: C7_7  and  N1_10 
REMARK    4  A    between atoms: C_13  and  P_20 
REMARK       I    between atoms: N6_24  and  C34_25 
REMARK    5  A    between atoms: C9_34  and  C10_35 
REMARK       I    between atoms: C10_35  and  N3_37 
REMARK    6  A    between atoms: N3_37  and  C11_38 
REMARK    7  A    between atoms: C11_38  and  C15_44 
REMARK    8  A    between atoms: C11_38  and  C12_39 
REMARK    9  A    between atoms: C12_39  and  C13_40 
REMARK   10  A    between atoms: C13_40  and  C14_41 
REMARK       I    between atoms: C14_41  and  N4_43 
REMARK       I    between atoms: C15_44  and  N5_46 
REMARK   11  A    between atoms: N5_46  and  C16_47 
REMARK   12  A    between atoms: C16_47  and  C17_54 
REMARK   13  A    between atoms: C16_47  and  C23_48 
ROOT
ATOM      1  C7  KQV A 701      13.747  54.373  -1.959  1.00  0.00     0.195 C 
ATOM      2  C8  KQV A 701      13.381  55.354  -0.811  1.00  0.00     0.245 C 
ATOM      3  N2  KQV A 701      14.497  56.103  -0.186  1.00  0.00    -0.332 N 
ATOM      4  C36 KQV A 701      14.069  55.215  -3.240  1.00  0.00     0.160 C 
ATOM      5  N6  KQV A 701      15.573  55.460  -3.374  1.00  0.00    -0.350 N 
ATOM      6  C34 KQV A 701      16.413  54.672  -4.104  1.00  0.00     0.215 C 
ATOM      7  O6  KQV A 701      16.962  55.102  -5.108  1.00  0.00    -0.274 OA
ATOM      8  C35 KQV A 701      16.676  53.275  -3.622  1.00  0.00     0.117 C 
ATOM      9  C33 KQV A 701      16.098  56.675  -2.735  1.00  0.00     0.128 C 
ATOM     10  C32 KQV A 701      16.707  56.476  -1.363  1.00  0.00     0.045 C 
ATOM     11  C31 KQV A 701      15.928  55.734  -0.265  1.00  0.00     0.089 C 
ATOM     12  O7  KQV A 701      12.228  55.500  -0.443  1.00  0.00    -0.271 OA
ATOM     13  C30 KQV A 701      16.405  55.987   1.166  1.00  0.00     0.028 C 
ATOM     14  C29 KQV A 701      15.516  57.140   1.654  1.00  0.00     0.037 C 
ATOM     15  C9  KQV A 701      14.151  56.813   1.047  1.00  0.00     0.179 C 
ENDROOT
BRANCH  15  16
ATOM     16  C10 KQV A 701      13.329  58.073   0.790  1.00  0.00     0.241 C 
ATOM     17  O5  KQV A 701      12.322  58.318   1.451  1.00  0.00    -0.271 OA
ATOM     18  N3  KQV A 701      13.801  58.875  -0.172  1.00  0.00    -0.346 N 
ATOM     19  H   KQV A 701      14.573  58.566  -0.700  1.00  0.00     0.163 HD
BRANCH  18  20
ATOM     20  C11 KQV A 701      13.234  60.177  -0.479  1.00  0.00     0.177 C 
BRANCH  20  21
ATOM     21  C15 KQV A 701      12.664  60.885   0.752  1.00  0.00     0.241 C 
ATOM     22  N5  KQV A 701      13.501  61.069   1.785  1.00  0.00    -0.347 N 
ATOM     23  H   KQV A 701      14.451  60.838   1.671  1.00  0.00     0.163 HD
ATOM     24  O4  KQV A 701      11.486  61.239   0.764  1.00  0.00    -0.271 OA
BRANCH  22  25
ATOM     25  C16 KQV A 701      13.053  61.604   3.078  1.00  0.00     0.151 C 
BRANCH  25  26
ATOM     26  C17 KQV A 701      13.534  63.028   3.327  1.00  0.00    -0.031 A 
ATOM     27  C18 KQV A 701      14.837  63.408   3.025  1.00  0.00     0.009 A 
ATOM     28  C19 KQV A 701      15.291  64.684   3.328  1.00  0.00     0.001 A 
ATOM     29  C20 KQV A 701      14.445  65.599   3.926  1.00  0.00     0.000 A 
ATOM     30  C21 KQV A 701      13.144  65.237   4.222  1.00  0.00     0.001 A 
ATOM     31  C22 KQV A 701      12.691  63.960   3.923  1.00  0.00     0.009 A 
ENDBRANCH  25  26
BRANCH  25  32
ATOM     32  C23 KQV A 701      13.303  60.657   4.247  1.00  0.00    -0.031 A 
ATOM     33  C28 KQV A 701      14.239  59.632   4.153  1.00  0.00     0.009 A 
ATOM     34  C27 KQV A 701      14.405  58.728   5.193  1.00  0.00     0.001 A 
ATOM     35  C26 KQV A 701      13.642  58.838   6.340  1.00  0.00     0.000 A 
ATOM     36  C25 KQV A 701      12.719  59.860   6.451  1.00  0.00     0.001 A 
ATOM     37  C24 KQV A 701      12.553  60.766   5.414  1.00  0.00     0.009 A 
ENDBRANCH  25  32
ENDBRANCH  22  25
ENDBRANCH  20  21
BRANCH  20  38
ATOM     38  C12 KQV A 701      12.171  60.061  -1.574  1.00  0.00     0.044 C 
BRANCH  38  39
ATOM     39  C13 KQV A 701      12.473  58.969  -2.606  1.00  0.00     0.105 C 
BRANCH  39  40
ATOM     40  C14 KQV A 701      11.397  57.916  -2.749  1.00  0.00     0.215 C 
ATOM     41  N4  KQV A 701      10.720  57.625  -1.649  1.00  0.00    -0.370 N 
ATOM     42  H   KQV A 701      10.937  58.079  -0.803  1.00  0.00     0.159 HD
ATOM     43  H   KQV A 701      10.000  56.953  -1.676  1.00  0.00     0.159 HD
ATOM     44  O3  KQV A 701      11.167  57.377  -3.835  1.00  0.00    -0.274 OA
ENDBRANCH  39  40
ENDBRANCH  38  39
ENDBRANCH  20  38
ENDBRANCH  18  20
ENDBRANCH  15  16
BRANCH   1  45
ATOM     45  N1  KQV A 701      12.847  53.232  -2.032  1.00  0.00    -0.341 N 
ATOM     46  C6  KQV A 701      12.039  52.941  -3.070  1.00  0.00     0.269 C 
ATOM     47  O8  KQV A 701      11.769  53.741  -3.968  1.00  0.00    -0.266 OA
ATOM     48  H   KQV A 701      12.827  52.622  -1.258  1.00  0.00     0.163 HD
BRANCH  46  49
ATOM     49  C5  KQV A 701      11.483  51.566  -3.081  1.00  0.00     0.102 A 
ATOM     50  N   KQV A 701      10.541  51.107  -3.981  1.00  0.00    -0.351 N 
ATOM     51  C4  KQV A 701      10.306  49.764  -3.734  1.00  0.00     0.043 A 
ATOM     52  H   KQV A 701      10.108  51.645  -4.683  1.00  0.00     0.166 HD
ATOM     53  C3  KQV A 701      11.120  49.376  -2.654  1.00  0.00    -0.006 A 
ATOM     54  C38 KQV A 701       9.466  48.857  -4.379  1.00  0.00     0.031 A 
ATOM     55  C2  KQV A 701      11.084  48.047  -2.236  1.00  0.00     0.027 A 
ATOM     56  C37 KQV A 701      11.854  50.538  -2.254  1.00  0.00     0.049 A 
ATOM     57  C1  KQV A 701      10.274  47.115  -2.877  1.00  0.00     0.028 A 
ATOM     58  C39 KQV A 701       9.462  47.537  -3.936  1.00  0.00     0.016 A 
BRANCH  57  59
ATOM     59  C   KQV A 701      10.430  45.649  -2.418  1.00  0.00     0.380 C 
ATOM     60  F   KQV A 701      11.736  45.278  -2.447  1.00  0.00    -0.185 F 
ATOM     61  F1  KQV A 701       9.917  44.792  -3.330  1.00  0.00    -0.185 F 
BRANCH  59  62
ATOM     62  P   KQV A 701       9.725  45.339  -0.700  1.00  0.00     0.339 P 
ATOM     63  O1  KQV A 701      10.918  45.521   0.267  1.00  0.00    -0.635 OA
ATOM     64  O   KQV A 701       8.733  46.494  -0.467  1.00  0.00    -0.635 OA
ATOM     65  O2  KQV A 701       9.079  43.994  -0.591  1.00  0.00    -0.635 OA
ENDBRANCH  59  62
ENDBRANCH  57  59
ENDBRANCH  46  49
ENDBRANCH   1  45
TORSDOF 13
ENDMDL
MODEL 11
REMARK VINA RESULT:    -6.239      2.529      4.705
REMARK INTER + INTRA:         -13.320
REMARK INTER:                  -9.846
REMARK INTRA:                  -3.475
REMARK UNBOUND:                -2.339
REMARK  13 active torsions:
REMARK  status: ('A' for Active; 'I' for Inactive)
REMARK    1  A    between atoms: C1_1  and  C_13 
REMARK    2  A    between atoms: C5_5  and  C6_6 
REMARK       I    between atoms: C6_6  and  N1_10 
REMARK    3  A    between atoms: C7_7  and  N1_10 
REMARK    4  A    between atoms: C_13  and  P_20 
REMARK       I    between atoms: N6_24  and  C34_25 
REMARK    5  A    between atoms: C9_34  and  C10_35 
REMARK       I    between atoms: C10_35  and  N3_37 
REMARK    6  A    between atoms: N3_37  and  C11_38 
REMARK    7  A    between atoms: C11_38  and  C15_44 
REMARK    8  A    between atoms: C11_38  and  C12_39 
REMARK    9  A    between atoms: C12_39  and  C13_40 
REMARK   10  A    between atoms: C13_40  and  C14_41 
REMARK       I    between atoms: C14_41  and  N4_43 
REMARK       I    between atoms: C15_44  and  N5_46 
REMARK   11  A    between atoms: N5_46  and  C16_47 
REMARK   12  A    between atoms: C16_47  and  C17_54 
REMARK   13  A    between atoms: C16_47  and  C23_48 
ROOT
ATOM      1  C7  KQV A 701      13.642  56.990  -1.778  1.00  0.00     0.195 C 
ATOM      2  C8  KQV A 701      14.756  57.480  -0.812  1.00  0.00     0.245 C 
ATOM      3  N2  KQV A 701      15.598  58.608  -1.274  1.00  0.00    -0.332 N 
ATOM      4  C36 KQV A 701      12.477  58.037  -1.755  1.00  0.00     0.160 C 
ATOM      5  N6  KQV A 701      12.616  59.039  -2.902  1.00  0.00    -0.350 N 
ATOM      6  C34 KQV A 701      12.004  58.903  -4.113  1.00  0.00     0.215 C 
ATOM      7  O6  KQV A 701      11.131  59.682  -4.467  1.00  0.00    -0.274 OA
ATOM      8  C35 KQV A 701      12.456  57.794  -5.018  1.00  0.00     0.117 C 
ATOM      9  C33 KQV A 701      13.393  60.255  -2.620  1.00  0.00     0.128 C 
ATOM     10  C32 KQV A 701      14.838  60.221  -3.072  1.00  0.00     0.045 C 
ATOM     11  C31 KQV A 701      15.749  59.046  -2.680  1.00  0.00     0.089 C 
ATOM     12  O7  KQV A 701      14.927  56.959   0.278  1.00  0.00    -0.271 OA
ATOM     13  C30 KQV A 701      17.251  59.319  -2.773  1.00  0.00     0.028 C 
ATOM     14  C29 KQV A 701      17.634  59.770  -1.356  1.00  0.00     0.037 C 
ATOM     15  C9  KQV A 701      16.787  58.868  -0.458  1.00  0.00     0.179 C 
ENDROOT
BRANCH  15  16
ATOM     16  C10 KQV A 701      16.453  59.543   0.869  1.00  0.00     0.241 C 
ATOM     17  O5  KQV A 701      16.648  58.968   1.938  1.00  0.00    -0.271 OA
ATOM     18  N3  KQV A 701      15.965  60.785   0.770  1.00  0.00    -0.346 N 
ATOM     19  H   KQV A 701      15.773  61.141  -0.128  1.00  0.00     0.163 HD
BRANCH  18  20
ATOM     20  C11 KQV A 701      15.706  61.638   1.919  1.00  0.00     0.177 C 
BRANCH  20  21
ATOM     21  C15 KQV A 701      15.693  60.869   3.241  1.00  0.00     0.241 C 
ATOM     22  N5  KQV A 701      14.638  60.069   3.466  1.00  0.00    -0.347 N 
ATOM     23  H   KQV A 701      13.982  59.937   2.744  1.00  0.00     0.163 HD
ATOM     24  O4  KQV A 701      16.615  61.013   4.042  1.00  0.00    -0.271 OA
BRANCH  22  25
ATOM     25  C16 KQV A 701      14.426  59.384   4.749  1.00  0.00     0.151 C 
BRANCH  25  26
ATOM     26  C17 KQV A 701      14.375  57.868   4.607  1.00  0.00    -0.031 A 
ATOM     27  C18 KQV A 701      13.539  57.263   3.675  1.00  0.00     0.009 A 
ATOM     28  C19 KQV A 701      13.440  55.880   3.607  1.00  0.00     0.001 A 
ATOM     29  C20 KQV A 701      14.183  55.086   4.461  1.00  0.00     0.000 A 
ATOM     30  C21 KQV A 701      15.025  55.676   5.385  1.00  0.00     0.001 A 
ATOM     31  C22 KQV A 701      15.122  57.059   5.456  1.00  0.00     0.009 A 
ENDBRANCH  25  26
BRANCH  25  32
ATOM     32  C23 KQV A 701      13.276  59.965   5.565  1.00  0.00    -0.031 A 
ATOM     33  C28 KQV A 701      12.572  61.080   5.121  1.00  0.00     0.009 A 
ATOM     34  C27 KQV A 701      11.578  61.648   5.906  1.00  0.00     0.001 A 
ATOM     35  C26 KQV A 701      11.272  61.108   7.141  1.00  0.00     0.000 A 
ATOM     36  C25 KQV A 701      11.955  59.992   7.586  1.00  0.00     0.001 A 
ATOM     37  C24 KQV A 701      12.947  59.422   6.802  1.00  0.00     0.009 A 
ENDBRANCH  25  32
ENDBRANCH  22  25
ENDBRANCH  20  21
BRANCH  20  38
ATOM     38  C12 KQV A 701      14.399  62.413   1.734  1.00  0.00     0.044 C 
BRANCH  38  39
ATOM     39  C13 KQV A 701      13.566  61.932   0.541  1.00  0.00     0.105 C 
BRANCH  39  40
ATOM     40  C14 KQV A 701      12.436  60.991   0.894  1.00  0.00     0.215 C 
ATOM     41  N4  KQV A 701      11.216  61.417   0.607  1.00  0.00    -0.370 N 
ATOM     42  H   KQV A 701      11.087  62.302   0.196  1.00  0.00     0.159 HD
ATOM     43  H   KQV A 701      10.436  60.848   0.804  1.00  0.00     0.159 HD
ATOM     44  O3  KQV A 701      12.655  59.891   1.408  1.00  0.00    -0.274 OA
ENDBRANCH  39  40
ENDBRANCH  38  39
ENDBRANCH  20  38
ENDBRANCH  18  20
ENDBRANCH  15  16
BRANCH   1  45
ATOM     45  N1  KQV A 701      13.361  55.569  -1.638  1.00  0.00    -0.341 N 
ATOM     46  C6  KQV A 701      12.385  54.900  -2.281  1.00  0.00     0.269 C 
ATOM     47  O8  KQV A 701      11.449  55.454  -2.862  1.00  0.00    -0.266 OA
ATOM     48  H   KQV A 701      13.932  55.054  -1.022  1.00  0.00     0.163 HD
BRANCH  46  49
ATOM     49  C5  KQV A 701      12.503  53.422  -2.262  1.00  0.00     0.102 A 
ATOM     50  N   KQV A 701      11.434  52.549  -2.210  1.00  0.00    -0.351 N 
ATOM     51  C4  KQV A 701      11.914  51.251  -2.273  1.00  0.00     0.043 A 
ATOM     52  H   KQV A 701      10.486  52.807  -2.140  1.00  0.00     0.166 HD
ATOM     53  C3  KQV A 701      13.316  51.316  -2.364  1.00  0.00    -0.006 A 
ATOM     54  C38 KQV A 701      11.236  50.032  -2.276  1.00  0.00     0.031 A 
ATOM     55  C2  KQV A 701      14.032  50.125  -2.473  1.00  0.00     0.027 A 
ATOM     56  C37 KQV A 701      13.667  52.703  -2.351  1.00  0.00     0.049 A 
ATOM     57  C1  KQV A 701      13.380  48.895  -2.505  1.00  0.00     0.028 A 
ATOM     58  C39 KQV A 701      11.986  48.865  -2.392  1.00  0.00     0.016 A 
BRANCH  57  59
ATOM     59  C   KQV A 701      14.269  47.661  -2.774  1.00  0.00     0.380 C 
ATOM     60  F   KQV A 701      15.539  48.045  -3.068  1.00  0.00    -0.185 F 
ATOM     61  F1  KQV A 701      13.928  47.055  -3.933  1.00  0.00    -0.185 F 
BRANCH  59  62
ATOM     62  P   KQV A 701      14.295  46.448  -1.334  1.00  0.00     0.339 P 
ATOM     63  O1  KQV A 701      15.378  45.407  -1.701  1.00  0.00    -0.635 OA
ATOM     64  O   KQV A 701      14.802  47.271  -0.135  1.00  0.00    -0.635 OA
ATOM     65  O2  KQV A 701      12.951  45.838  -1.088  1.00  0.00    -0.635 OA
ENDBRANCH  59  62
ENDBRANCH  57  59
ENDBRANCH  46  49
ENDBRANCH   1  45
TORSDOF 13
ENDMDL
MODEL 12
REMARK VINA RESULT:    -6.203      1.537      2.014
REMARK INTER + INTRA:         -13.255
REMARK INTER:                 -10.877
REMARK INTRA:                  -2.378
REMARK UNBOUND:                -2.339
REMARK  13 active torsions:
REMARK  status: ('A' for Active; 'I' for Inactive)
REMARK    1  A    between atoms: C1_1  and  C_13 
REMARK    2  A    between atoms: C5_5  and  C6_6 
REMARK       I    between atoms: C6_6  and  N1_10 
REMARK    3  A    between atoms: C7_7  and  N1_10 
REMARK    4  A    between atoms: C_13  and  P_20 
REMARK       I    between atoms: N6_24  and  C34_25 
REMARK    5  A    between atoms: C9_34  and  C10_35 
REMARK       I    between atoms: C10_35  and  N3_37 
REMARK    6  A    between atoms: N3_37  and  C11_38 
REMARK    7  A    between atoms: C11_38  and  C15_44 
REMARK    8  A    between atoms: C11_38  and  C12_39 
REMARK    9  A    between atoms: C12_39  and  C13_40 
REMARK   10  A    between atoms: C13_40  and  C14_41 
REMARK       I    between atoms: C14_41  and  N4_43 
REMARK       I    between atoms: C15_44  and  N5_46 
REMARK   11  A    between atoms: N5_46  and  C16_47 
REMARK   12  A    between atoms: C16_47  and  C17_54 
REMARK   13  A    between atoms: C16_47  and  C23_48 
ROOT
ATOM      1  C7  KQV A 701      13.214  55.605  -2.745  1.00  0.00     0.195 C 
ATOM      2  C8  KQV A 701      13.657  55.768  -1.265  1.00  0.00     0.245 C 
ATOM      3  N2  KQV A 701      14.938  56.469  -1.021  1.00  0.00    -0.332 N 
ATOM      4  C36 KQV A 701      12.701  56.992  -3.261  1.00  0.00     0.160 C 
ATOM      5  N6  KQV A 701      13.810  57.753  -3.989  1.00  0.00    -0.350 N 
ATOM      6  C34 KQV A 701      14.004  57.714  -5.338  1.00  0.00     0.215 C 
ATOM      7  O6  KQV A 701      13.830  58.709  -6.026  1.00  0.00    -0.274 OA
ATOM      8  C35 KQV A 701      14.472  56.427  -5.953  1.00  0.00     0.117 C 
ATOM      9  C33 KQV A 701      14.648  58.637  -3.166  1.00  0.00     0.128 C 
ATOM     10  C32 KQV A 701      15.967  58.046  -2.714  1.00  0.00     0.045 C 
ATOM     11  C31 KQV A 701      16.009  56.674  -2.022  1.00  0.00     0.089 C 
ATOM     12  O7  KQV A 701      12.977  55.340  -0.347  1.00  0.00    -0.271 OA
ATOM     13  C30 KQV A 701      17.271  56.386  -1.207  1.00  0.00     0.028 C 
ATOM     14  C29 KQV A 701      16.900  56.821   0.217  1.00  0.00     0.037 C 
ATOM     15  C9  KQV A 701      15.443  56.378   0.352  1.00  0.00     0.179 C 
ENDROOT
BRANCH  15  16
ATOM     16  C10 KQV A 701      14.669  57.264   1.323  1.00  0.00     0.241 C 
ATOM     17  O5  KQV A 701      13.901  58.133   0.913  1.00  0.00    -0.271 OA
ATOM     18  N3  KQV A 701      14.874  57.004   2.620  1.00  0.00    -0.346 N 
ATOM     19  H   KQV A 701      15.560  56.339   2.859  1.00  0.00     0.163 HD
BRANCH  18  20
ATOM     20  C11 KQV A 701      14.137  57.651   3.693  1.00  0.00     0.177 C 
BRANCH  20  21
ATOM     21  C15 KQV A 701      14.364  59.163   3.745  1.00  0.00     0.241 C 
ATOM     22  N5  KQV A 701      13.350  59.941   3.335  1.00  0.00    -0.347 N 
ATOM     23  H   KQV A 701      12.487  59.519   3.118  1.00  0.00     0.163 HD
ATOM     24  O4  KQV A 701      15.443  59.607   4.135  1.00  0.00    -0.271 OA
BRANCH  22  25
ATOM     25  C16 KQV A 701      13.479  61.398   3.198  1.00  0.00     0.151 C 
BRANCH  25  26
ATOM     26  C17 KQV A 701      12.736  62.162   4.286  1.00  0.00    -0.031 A 
ATOM     27  C18 KQV A 701      12.843  63.545   4.392  1.00  0.00     0.009 A 
ATOM     28  C19 KQV A 701      12.226  64.224   5.433  1.00  0.00     0.001 A 
ATOM     29  C20 KQV A 701      11.487  63.532   6.375  1.00  0.00     0.000 A 
ATOM     30  C21 KQV A 701      11.366  62.159   6.275  1.00  0.00     0.001 A 
ATOM     31  C22 KQV A 701      11.985  61.478   5.235  1.00  0.00     0.009 A 
ENDBRANCH  25  26
BRANCH  25  32
ATOM     32  C23 KQV A 701      13.194  61.903   1.787  1.00  0.00    -0.031 A 
ATOM     33  C28 KQV A 701      13.694  63.125   1.347  1.00  0.00     0.009 A 
ATOM     34  C27 KQV A 701      13.366  63.612   0.089  1.00  0.00     0.001 A 
ATOM     35  C26 KQV A 701      12.539  62.884  -0.745  1.00  0.00     0.000 A 
ATOM     36  C25 KQV A 701      12.047  61.663  -0.325  1.00  0.00     0.001 A 
ATOM     37  C24 KQV A 701      12.375  61.174   0.931  1.00  0.00     0.009 A 
ENDBRANCH  25  32
ENDBRANCH  22  25
ENDBRANCH  20  21
BRANCH  20  38
ATOM     38  C12 KQV A 701      14.470  57.009   5.042  1.00  0.00     0.044 C 
BRANCH  38  39
ATOM     39  C13 KQV A 701      15.456  55.840   4.937  1.00  0.00     0.105 C 
BRANCH  39  40
ATOM     40  C14 KQV A 701      14.834  54.470   5.085  1.00  0.00     0.215 C 
ATOM     41  N4  KQV A 701      13.620  54.326   4.575  1.00  0.00    -0.370 N 
ATOM     42  H   KQV A 701      13.176  55.088   4.140  1.00  0.00     0.159 HD
ATOM     43  H   KQV A 701      13.163  53.456   4.630  1.00  0.00     0.159 HD
ATOM     44  O3  KQV A 701      15.438  53.548   5.640  1.00  0.00    -0.274 OA
ENDBRANCH  39  40
ENDBRANCH  38  39
ENDBRANCH  20  38
ENDBRANCH  18  20
ENDBRANCH  15  16
BRANCH   1  45
ATOM     45  N1  KQV A 701      12.430  54.398  -2.967  1.00  0.00    -0.341 N 
ATOM     46  C6  KQV A 701      12.870  53.288  -3.592  1.00  0.00     0.269 C 
ATOM     47  O8  KQV A 701      13.893  53.253  -4.279  1.00  0.00    -0.266 OA
ATOM     48  H   KQV A 701      11.504  54.393  -2.634  1.00  0.00     0.163 HD
BRANCH  46  49
ATOM     49  C5  KQV A 701      12.040  52.075  -3.397  1.00  0.00     0.102 A 
ATOM     50  N   KQV A 701      11.429  51.369  -4.414  1.00  0.00    -0.351 N 
ATOM     51  C4  KQV A 701      10.795  50.263  -3.872  1.00  0.00     0.043 A 
ATOM     52  H   KQV A 701      11.443  51.612  -5.369  1.00  0.00     0.166 HD
ATOM     53  C3  KQV A 701      11.014  50.280  -2.483  1.00  0.00    -0.006 A 
ATOM     54  C38 KQV A 701      10.068  49.242  -4.485  1.00  0.00     0.031 A 
ATOM     55  C2  KQV A 701      10.496  49.239  -1.714  1.00  0.00     0.027 A 
ATOM     56  C37 KQV A 701      11.803  51.441  -2.204  1.00  0.00     0.049 A 
ATOM     57  C1  KQV A 701       9.789  48.195  -2.302  1.00  0.00     0.028 A 
ATOM     58  C39 KQV A 701       9.571  48.218  -3.684  1.00  0.00     0.016 A 
BRANCH  57  59
ATOM     59  C   KQV A 701       9.392  47.031  -1.368  1.00  0.00     0.380 C 
ATOM     60  F   KQV A 701       8.215  46.482  -1.767  1.00  0.00    -0.185 F 
ATOM     61  F1  KQV A 701       9.042  47.484  -0.143  1.00  0.00    -0.185 F 
BRANCH  59  62
ATOM     62  P   KQV A 701      10.710  45.691  -1.264  1.00  0.00     0.339 P 
ATOM     63  O1  KQV A 701      12.023  46.437  -0.936  1.00  0.00    -0.635 OA
ATOM     64  O   KQV A 701      10.314  44.844  -0.039  1.00  0.00    -0.635 OA
ATOM     65  O2  KQV A 701      10.790  44.882  -2.521  1.00  0.00    -0.635 OA
ENDBRANCH  59  62
ENDBRANCH  57  59
ENDBRANCH  46  49
ENDBRANCH   1  45
TORSDOF 13
ENDMDL
MODEL 13
REMARK VINA RESULT:    -6.190      3.077      5.834
REMARK INTER + INTRA:         -13.234
REMARK INTER:                  -9.563
REMARK INTRA:                  -3.671
REMARK UNBOUND:                -2.339
REMARK  13 active torsions:
REMARK  status: ('A' for Active; 'I' for Inactive)
REMARK    1  A    between atoms: C1_1  and  C_13 
REMARK    2  A    between atoms: C5_5  and  C6_6 
REMARK       I    between atoms: C6_6  and  N1_10 
REMARK    3  A    between atoms: C7_7  and  N1_10 
REMARK    4  A    between atoms: C_13  and  P_20 
REMARK       I    between atoms: N6_24  and  C34_25 
REMARK    5  A    between atoms: C9_34  and  C10_35 
REMARK       I    between atoms: C10_35  and  N3_37 
REMARK    6  A    between atoms: N3_37  and  C11_38 
REMARK    7  A    between atoms: C11_38  and  C15_44 
REMARK    8  A    between atoms: C11_38  and  C12_39 
REMARK    9  A    between atoms: C12_39  and  C13_40 
REMARK   10  A    between atoms: C13_40  and  C14_41 
REMARK       I    between atoms: C14_41  and  N4_43 
REMARK       I    between atoms: C15_44  and  N5_46 
REMARK   11  A    between atoms: N5_46  and  C16_47 
REMARK   12  A    between atoms: C16_47  and  C17_54 
REMARK   13  A    between atoms: C16_47  and  C23_48 
ROOT
ATOM      1  C7  KQV A 701      14.524  52.923  -2.590  1.00  0.00     0.195 C 
ATOM      2  C8  KQV A 701      14.155  54.370  -2.160  1.00  0.00     0.245 C 
ATOM      3  N2  KQV A 701      15.272  55.332  -2.012  1.00  0.00    -0.332 N 
ATOM      4  C36 KQV A 701      14.881  52.941  -4.115  1.00  0.00     0.160 C 
ATOM      5  N6  KQV A 701      16.391  53.069  -4.326  1.00  0.00    -0.350 N 
ATOM      6  C34 KQV A 701      17.230  52.008  -4.497  1.00  0.00     0.215 C 
ATOM      7  O6  KQV A 701      17.803  51.826  -5.562  1.00  0.00    -0.274 OA
ATOM      8  C35 KQV A 701      17.463  51.089  -3.333  1.00  0.00     0.117 C 
ATOM      9  C33 KQV A 701      16.924  54.434  -4.430  1.00  0.00     0.128 C 
ATOM     10  C32 KQV A 701      17.508  55.003  -3.153  1.00  0.00     0.045 C 
ATOM     11  C31 KQV A 701      16.698  54.973  -1.847  1.00  0.00     0.089 C 
ATOM     12  O7  KQV A 701      12.998  54.697  -1.955  1.00  0.00    -0.271 OA
ATOM     13  C30 KQV A 701      17.155  55.955  -0.767  1.00  0.00     0.028 C 
ATOM     14  C29 KQV A 701      16.277  57.193  -0.997  1.00  0.00     0.037 C 
ATOM     15  C9  KQV A 701      14.917  56.597  -1.363  1.00  0.00     0.179 C 
ENDROOT
BRANCH  15  16
ATOM     16  C10 KQV A 701      14.120  57.523  -2.277  1.00  0.00     0.241 C 
ATOM     17  O5  KQV A 701      14.686  58.250  -3.092  1.00  0.00    -0.271 OA
ATOM     18  N3  KQV A 701      12.791  57.459  -2.134  1.00  0.00    -0.346 N 
ATOM     19  H   KQV A 701      12.426  56.904  -1.408  1.00  0.00     0.163 HD
BRANCH  18  20
ATOM     20  C11 KQV A 701      11.858  58.167  -2.996  1.00  0.00     0.177 C 
BRANCH  20  21
ATOM     21  C15 KQV A 701      11.984  59.687  -2.890  1.00  0.00     0.241 C 
ATOM     22  N5  KQV A 701      12.659  60.166  -1.832  1.00  0.00    -0.347 N 
ATOM     23  H   KQV A 701      13.120  59.531  -1.238  1.00  0.00     0.163 HD
ATOM     24  O4  KQV A 701      11.466  60.406  -3.743  1.00  0.00    -0.271 OA
BRANCH  22  25
ATOM     25  C16 KQV A 701      12.737  61.602  -1.530  1.00  0.00     0.151 C 
BRANCH  25  26
ATOM     26  C17 KQV A 701      13.782  62.327  -2.368  1.00  0.00    -0.031 A 
ATOM     27  C18 KQV A 701      15.131  62.002  -2.269  1.00  0.00     0.009 A 
ATOM     28  C19 KQV A 701      16.085  62.720  -2.977  1.00  0.00     0.001 A 
ATOM     29  C20 KQV A 701      15.701  63.763  -3.800  1.00  0.00     0.000 A 
ATOM     30  C21 KQV A 701      14.363  64.089  -3.914  1.00  0.00     0.001 A 
ATOM     31  C22 KQV A 701      13.409  63.373  -3.204  1.00  0.00     0.009 A 
ENDBRANCH  25  26
BRANCH  25  32
ATOM     32  C23 KQV A 701      12.827  61.905  -0.037  1.00  0.00    -0.031 A 
ATOM     33  C28 KQV A 701      12.975  63.209   0.423  1.00  0.00     0.009 A 
ATOM     34  C27 KQV A 701      13.134  63.467   1.777  1.00  0.00     0.001 A 
ATOM     35  C26 KQV A 701      13.142  62.428   2.688  1.00  0.00     0.000 A 
ATOM     36  C25 KQV A 701      12.981  61.129   2.245  1.00  0.00     0.001 A 
ATOM     37  C24 KQV A 701      12.821  60.869   0.891  1.00  0.00     0.009 A 
ENDBRANCH  25  32
ENDBRANCH  22  25
ENDBRANCH  20  21
BRANCH  20  38
ATOM     38  C12 KQV A 701      10.420  57.725  -2.716  1.00  0.00     0.044 C 
BRANCH  38  39
ATOM     39  C13 KQV A 701       9.778  56.960  -3.879  1.00  0.00     0.105 C 
BRANCH  39  40
ATOM     40  C14 KQV A 701      10.563  55.761  -4.361  1.00  0.00     0.215 C 
ATOM     41  N4  KQV A 701      10.761  54.801  -3.470  1.00  0.00    -0.370 N 
ATOM     42  H   KQV A 701      10.411  54.899  -2.555  1.00  0.00     0.159 HD
ATOM     43  H   KQV A 701      11.258  53.990  -3.723  1.00  0.00     0.159 HD
ATOM     44  O3  KQV A 701      10.979  55.691  -5.520  1.00  0.00    -0.274 OA
ENDBRANCH  39  40
ENDBRANCH  38  39
ENDBRANCH  20  38
ENDBRANCH  18  20
ENDBRANCH  15  16
BRANCH   1  45
ATOM     45  N1  KQV A 701      13.607  51.927  -2.057  1.00  0.00    -0.341 N 
ATOM     46  C6  KQV A 701      12.409  51.609  -2.585  1.00  0.00     0.269 C 
ATOM     47  O8  KQV A 701      11.829  52.301  -3.424  1.00  0.00    -0.266 OA
ATOM     48  H   KQV A 701      13.885  51.445  -1.244  1.00  0.00     0.163 HD
BRANCH  46  49
ATOM     49  C5  KQV A 701      11.811  50.343  -2.096  1.00  0.00     0.102 A 
ATOM     50  N   KQV A 701      10.723  50.263  -1.249  1.00  0.00    -0.351 N 
ATOM     51  C4  KQV A 701      10.403  48.929  -1.059  1.00  0.00     0.043 A 
ATOM     52  H   KQV A 701      10.252  51.029  -0.848  1.00  0.00     0.166 HD
ATOM     53  C3  KQV A 701      11.313  48.157  -1.803  1.00  0.00    -0.006 A 
ATOM     54  C38 KQV A 701       9.382  48.338  -0.314  1.00  0.00     0.031 A 
ATOM     55  C2  KQV A 701      11.173  46.771  -1.797  1.00  0.00     0.027 A 
ATOM     56  C37 KQV A 701      12.200  49.076  -2.449  1.00  0.00     0.049 A 
ATOM     57  C1  KQV A 701      10.148  46.156  -1.083  1.00  0.00     0.028 A 
ATOM     58  C39 KQV A 701       9.271  46.951  -0.338  1.00  0.00     0.016 A 
BRANCH  57  59
ATOM     59  C   KQV A 701      10.010  44.629  -1.271  1.00  0.00     0.380 C 
ATOM     60  F   KQV A 701       9.338  44.081  -0.225  1.00  0.00    -0.185 F 
ATOM     61  F1  KQV A 701      11.204  44.009  -1.140  1.00  0.00    -0.185 F 
BRANCH  59  62
ATOM     62  P   KQV A 701       9.156  44.162  -2.882  1.00  0.00     0.339 P 
ATOM     63  O1  KQV A 701      10.127  43.187  -3.588  1.00  0.00    -0.635 OA
ATOM     64  O   KQV A 701       7.906  43.372  -2.451  1.00  0.00    -0.635 OA
ATOM     65  O2  KQV A 701       8.821  45.363  -3.710  1.00  0.00    -0.635 OA
ENDBRANCH  59  62
ENDBRANCH  57  59
ENDBRANCH  46  49
ENDBRANCH   1  45
TORSDOF 13
ENDMDL
MODEL 14
REMARK VINA RESULT:    -6.140      2.431      4.317
REMARK INTER + INTRA:         -13.146
REMARK INTER:                  -9.412
REMARK INTRA:                  -3.733
REMARK UNBOUND:                -2.339
REMARK  13 active torsions:
REMARK  status: ('A' for Active; 'I' for Inactive)
REMARK    1  A    between atoms: C1_1  and  C_13 
REMARK    2  A    between atoms: C5_5  and  C6_6 
REMARK       I    between atoms: C6_6  and  N1_10 
REMARK    3  A    between atoms: C7_7  and  N1_10 
REMARK    4  A    between atoms: C_13  and  P_20 
REMARK       I    between atoms: N6_24  and  C34_25 
REMARK    5  A    between atoms: C9_34  and  C10_35 
REMARK       I    between atoms: C10_35  and  N3_37 
REMARK    6  A    between atoms: N3_37  and  C11_38 
REMARK    7  A    between atoms: C11_38  and  C15_44 
REMARK    8  A    between atoms: C11_38  and  C12_39 
REMARK    9  A    between atoms: C12_39  and  C13_40 
REMARK   10  A    between atoms: C13_40  and  C14_41 
REMARK       I    between atoms: C14_41  and  N4_43 
REMARK       I    between atoms: C15_44  and  N5_46 
REMARK   11  A    between atoms: N5_46  and  C16_47 
REMARK   12  A    between atoms: C16_47  and  C17_54 
REMARK   13  A    between atoms: C16_47  and  C23_48 
ROOT
ATOM      1  C7  KQV A 701      13.909  55.601  -1.338  1.00  0.00     0.195 C 
ATOM      2  C8  KQV A 701      15.451  55.527  -1.164  1.00  0.00     0.245 C 
ATOM      3  N2  KQV A 701      16.245  56.647  -1.721  1.00  0.00    -0.332 N 
ATOM      4  C36 KQV A 701      13.351  56.665  -0.334  1.00  0.00     0.160 C 
ATOM      5  N6  KQV A 701      13.193  58.029  -1.009  1.00  0.00    -0.350 N 
ATOM      6  C34 KQV A 701      12.035  58.469  -1.579  1.00  0.00     0.215 C 
ATOM      7  O6  KQV A 701      11.421  59.414  -1.104  1.00  0.00    -0.274 OA
ATOM      8  C35 KQV A 701      11.551  57.787  -2.826  1.00  0.00     0.117 C 
ATOM      9  C33 KQV A 701      14.353  58.929  -0.947  1.00  0.00     0.128 C 
ATOM     10  C32 KQV A 701      15.243  58.928  -2.173  1.00  0.00     0.045 C 
ATOM     11  C31 KQV A 701      15.775  57.605  -2.747  1.00  0.00     0.089 C 
ATOM     12  O7  KQV A 701      15.982  54.590  -0.591  1.00  0.00    -0.271 OA
ATOM     13  C30 KQV A 701      16.998  57.727  -3.658  1.00  0.00     0.028 C 
ATOM     14  C29 KQV A 701      18.187  57.513  -2.711  1.00  0.00     0.037 C 
ATOM     15  C9  KQV A 701      17.691  56.419  -1.765  1.00  0.00     0.179 C 
ENDROOT
BRANCH  15  16
ATOM     16  C10 KQV A 701      18.344  56.521  -0.389  1.00  0.00     0.241 C 
ATOM     17  O5  KQV A 701      19.041  55.608   0.050  1.00  0.00    -0.271 OA
ATOM     18  N3  KQV A 701      18.118  57.666   0.265  1.00  0.00    -0.346 N 
ATOM     19  H   KQV A 701      17.490  58.313  -0.129  1.00  0.00     0.163 HD
BRANCH  18  20
ATOM     20  C11 KQV A 701      18.753  58.005   1.529  1.00  0.00     0.177 C 
BRANCH  20  21
ATOM     21  C15 KQV A 701      17.812  57.860   2.726  1.00  0.00     0.241 C 
ATOM     22  N5  KQV A 701      16.612  58.454   2.627  1.00  0.00    -0.347 N 
ATOM     23  H   KQV A 701      16.355  58.862   1.769  1.00  0.00     0.163 HD
ATOM     24  O4  KQV A 701      18.178  57.236   3.721  1.00  0.00    -0.271 OA
BRANCH  22  25
ATOM     25  C16 KQV A 701      15.668  58.516   3.752  1.00  0.00     0.151 C 
BRANCH  25  26
ATOM     26  C17 KQV A 701      15.108  57.151   4.130  1.00  0.00    -0.031 A 
ATOM     27  C18 KQV A 701      15.572  56.471   5.250  1.00  0.00     0.009 A 
ATOM     28  C19 KQV A 701      15.114  55.194   5.543  1.00  0.00     0.001 A 
ATOM     29  C20 KQV A 701      14.179  54.586   4.726  1.00  0.00     0.000 A 
ATOM     30  C21 KQV A 701      13.703  55.256   3.614  1.00  0.00     0.001 A 
ATOM     31  C22 KQV A 701      14.163  56.532   3.319  1.00  0.00     0.009 A 
ENDBRANCH  25  26
BRANCH  25  32
ATOM     32  C23 KQV A 701      14.602  59.596   3.591  1.00  0.00    -0.031 A 
ATOM     33  C28 KQV A 701      13.980  59.813   2.365  1.00  0.00     0.009 A 
ATOM     34  C27 KQV A 701      13.068  60.847   2.208  1.00  0.00     0.001 A 
ATOM     35  C26 KQV A 701      12.762  61.674   3.273  1.00  0.00     0.000 A 
ATOM     36  C25 KQV A 701      13.363  61.459   4.499  1.00  0.00     0.001 A 
ATOM     37  C24 KQV A 701      14.273  60.425   4.658  1.00  0.00     0.009 A 
ENDBRANCH  25  32
ENDBRANCH  22  25
ENDBRANCH  20  21
BRANCH  20  38
ATOM     38  C12 KQV A 701      19.346  59.415   1.476  1.00  0.00     0.044 C 
BRANCH  38  39
ATOM     39  C13 KQV A 701      18.877  60.231   0.267  1.00  0.00     0.105 C 
BRANCH  39  40
ATOM     40  C14 KQV A 701      17.781  61.231   0.562  1.00  0.00     0.215 C 
ATOM     41  N4  KQV A 701      18.069  62.498   0.309  1.00  0.00    -0.370 N 
ATOM     42  H   KQV A 701      18.956  62.741  -0.041  1.00  0.00     0.159 HD
ATOM     43  H   KQV A 701      17.396  63.198   0.472  1.00  0.00     0.159 HD
ATOM     44  O3  KQV A 701      16.686  60.871   1.002  1.00  0.00    -0.274 OA
ENDBRANCH  39  40
ENDBRANCH  38  39
ENDBRANCH  20  38
ENDBRANCH  18  20
ENDBRANCH  15  16
BRANCH   1  45
ATOM     45  N1  KQV A 701      13.291  54.287  -1.442  1.00  0.00    -0.341 N 
ATOM     46  C6  KQV A 701      13.305  53.503  -2.537  1.00  0.00     0.269 C 
ATOM     47  O8  KQV A 701      13.612  53.908  -3.661  1.00  0.00    -0.266 OA
ATOM     48  H   KQV A 701      12.825  53.943  -0.645  1.00  0.00     0.163 HD
BRANCH  46  49
ATOM     49  C5  KQV A 701      12.931  52.085  -2.314  1.00  0.00     0.102 A 
ATOM     50  N   KQV A 701      13.830  51.058  -2.106  1.00  0.00    -0.351 N 
ATOM     51  C4  KQV A 701      13.125  49.889  -1.869  1.00  0.00     0.043 A 
ATOM     52  H   KQV A 701      14.811  51.143  -2.123  1.00  0.00     0.166 HD
ATOM     53  C3  KQV A 701      11.753  50.194  -1.932  1.00  0.00    -0.006 A 
ATOM     54  C38 KQV A 701      13.576  48.600  -1.587  1.00  0.00     0.031 A 
ATOM     55  C2  KQV A 701      10.833  49.175  -1.693  1.00  0.00     0.027 A 
ATOM     56  C37 KQV A 701      11.655  51.592  -2.220  1.00  0.00     0.049 A 
ATOM     57  C1  KQV A 701      11.254  47.885  -1.384  1.00  0.00     0.028 A 
ATOM     58  C39 KQV A 701      12.626  47.610  -1.348  1.00  0.00     0.016 A 
BRANCH  57  59
ATOM     59  C   KQV A 701      10.145  46.882  -0.998  1.00  0.00     0.380 C 
ATOM     60  F   KQV A 701       9.491  47.303   0.115  1.00  0.00    -0.185 F 
ATOM     61  F1  KQV A 701      10.671  45.722  -0.543  1.00  0.00    -0.185 F 
BRANCH  59  62
ATOM     62  P   KQV A 701       8.906  46.588  -2.384  1.00  0.00     0.339 P 
ATOM     63  O1  KQV A 701       9.728  46.678  -3.690  1.00  0.00    -0.635 OA
ATOM     64  O   KQV A 701       8.447  45.129  -2.200  1.00  0.00    -0.635 OA
ATOM     65  O2  KQV A 701       7.768  47.559  -2.337  1.00  0.00    -0.635 OA
ENDBRANCH  59  62
ENDBRANCH  57  59
ENDBRANCH  46  49
ENDBRANCH   1  45
TORSDOF 13
ENDMDL
MODEL 15
REMARK VINA RESULT:    -6.118      2.426      5.634
REMARK INTER + INTRA:         -13.107
REMARK INTER:                  -8.691
REMARK INTRA:                  -4.416
REMARK UNBOUND:                -2.339
REMARK  13 active torsions:
REMARK  status: ('A' for Active; 'I' for Inactive)
REMARK    1  A    between atoms: C1_1  and  C_13 
REMARK    2  A    between atoms: C5_5  and  C6_6 
REMARK       I    between atoms: C6_6  and  N1_10 
REMARK    3  A    between atoms: C7_7  and  N1_10 
REMARK    4  A    between atoms: C_13  and  P_20 
REMARK       I    between atoms: N6_24  and  C34_25 
REMARK    5  A    between atoms: C9_34  and  C10_35 
REMARK       I    between atoms: C10_35  and  N3_37 
REMARK    6  A    between atoms: N3_37  and  C11_38 
REMARK    7  A    between atoms: C11_38  and  C15_44 
REMARK    8  A    between atoms: C11_38  and  C12_39 
REMARK    9  A    between atoms: C12_39  and  C13_40 
REMARK   10  A    between atoms: C13_40  and  C14_41 
REMARK       I    between atoms: C14_41  and  N4_43 
REMARK       I    between atoms: C15_44  and  N5_46 
REMARK   11  A    between atoms: N5_46  and  C16_47 
REMARK   12  A    between atoms: C16_47  and  C17_54 
REMARK   13  A    between atoms: C16_47  and  C23_48 
ROOT
ATOM      1  C7  KQV A 701      14.823  56.128  -0.375  1.00  0.00     0.195 C 
ATOM      2  C8  KQV A 701      14.263  56.675   0.967  1.00  0.00     0.245 C 
ATOM      3  N2  KQV A 701      15.228  57.328   1.882  1.00  0.00    -0.332 N 
ATOM      4  C36 KQV A 701      15.096  57.344  -1.324  1.00  0.00     0.160 C 
ATOM      5  N6  KQV A 701      16.557  57.789  -1.241  1.00  0.00    -0.350 N 
ATOM      6  C34 KQV A 701      17.537  57.356  -2.085  1.00  0.00     0.215 C 
ATOM      7  O6  KQV A 701      18.077  58.124  -2.868  1.00  0.00    -0.274 OA
ATOM      8  C35 KQV A 701      17.963  55.919  -2.002  1.00  0.00     0.117 C 
ATOM      9  C33 KQV A 701      16.874  58.812  -0.234  1.00  0.00     0.128 C 
ATOM     10  C32 KQV A 701      17.428  58.286   1.074  1.00  0.00     0.045 C 
ATOM     11  C31 KQV A 701      16.699  57.168   1.835  1.00  0.00     0.089 C 
ATOM     12  O7  KQV A 701      13.082  56.572   1.253  1.00  0.00    -0.271 OA
ATOM     13  C30 KQV A 701      17.056  57.038   3.316  1.00  0.00     0.028 C 
ATOM     14  C29 KQV A 701      15.992  57.883   4.030  1.00  0.00     0.037 C 
ATOM     15  C9  KQV A 701      14.721  57.596   3.230  1.00  0.00     0.179 C 
ENDROOT
BRANCH  15  16
ATOM     16  C10 KQV A 701      13.749  58.772   3.269  1.00  0.00     0.241 C 
ATOM     17  O5  KQV A 701      13.090  59.015   4.278  1.00  0.00    -0.271 OA
ATOM     18  N3  KQV A 701      13.698  59.507   2.152  1.00  0.00    -0.346 N 
ATOM     19  H   KQV A 701      14.206  59.198   1.367  1.00  0.00     0.163 HD
BRANCH  18  20
ATOM     20  C11 KQV A 701      12.931  60.736   2.037  1.00  0.00     0.177 C 
BRANCH  20  21
ATOM     21  C15 KQV A 701      12.259  60.895   0.672  1.00  0.00     0.241 C 
ATOM     22  N5  KQV A 701      12.511  59.942  -0.240  1.00  0.00    -0.347 N 
ATOM     23  H   KQV A 701      13.024  59.148   0.034  1.00  0.00     0.163 HD
ATOM     24  O4  KQV A 701      11.542  61.870   0.451  1.00  0.00    -0.271 OA
BRANCH  22  25
ATOM     25  C16 KQV A 701      12.049  60.040  -1.632  1.00  0.00     0.151 C 
BRANCH  25  26
ATOM     26  C17 KQV A 701      11.581  58.704  -2.195  1.00  0.00    -0.031 A 
ATOM     27  C18 KQV A 701      11.274  58.562  -3.544  1.00  0.00     0.009 A 
ATOM     28  C19 KQV A 701      10.774  57.364  -4.033  1.00  0.00     0.001 A 
ATOM     29  C20 KQV A 701      10.584  56.290  -3.183  1.00  0.00     0.000 A 
ATOM     30  C21 KQV A 701      10.895  56.416  -1.842  1.00  0.00     0.001 A 
ATOM     31  C22 KQV A 701      11.393  57.615  -1.351  1.00  0.00     0.009 A 
ENDBRANCH  25  26
BRANCH  25  32
ATOM     32  C23 KQV A 701      13.019  60.786  -2.543  1.00  0.00    -0.031 A 
ATOM     33  C28 KQV A 701      12.603  61.886  -3.287  1.00  0.00     0.009 A 
ATOM     34  C27 KQV A 701      13.471  62.510  -4.171  1.00  0.00     0.001 A 
ATOM     35  C26 KQV A 701      14.766  62.049  -4.319  1.00  0.00     0.000 A 
ATOM     36  C25 KQV A 701      15.195  60.966  -3.575  1.00  0.00     0.001 A 
ATOM     37  C24 KQV A 701      14.328  60.341  -2.690  1.00  0.00     0.009 A 
ENDBRANCH  25  32
ENDBRANCH  22  25
ENDBRANCH  20  21
BRANCH  20  38
ATOM     38  C12 KQV A 701      13.806  61.952   2.351  1.00  0.00     0.044 C 
BRANCH  38  39
ATOM     39  C13 KQV A 701      13.148  62.947   3.314  1.00  0.00     0.105 C 
BRANCH  39  40
ATOM     40  C14 KQV A 701      12.539  62.326   4.551  1.00  0.00     0.215 C 
ATOM     41  N4  KQV A 701      13.381  61.704   5.362  1.00  0.00    -0.370 N 
ATOM     42  H   KQV A 701      14.339  61.661   5.138  1.00  0.00     0.159 HD
ATOM     43  H   KQV A 701      13.050  61.286   6.189  1.00  0.00     0.159 HD
ATOM     44  O3  KQV A 701      11.330  62.411   4.782  1.00  0.00    -0.274 OA
ENDBRANCH  39  40
ENDBRANCH  38  39
ENDBRANCH  20  38
ENDBRANCH  18  20
ENDBRANCH  15  16
BRANCH   1  45
ATOM     45  N1  KQV A 701      14.094  54.964  -0.856  1.00  0.00    -0.341 N 
ATOM     46  C6  KQV A 701      14.213  54.423  -2.083  1.00  0.00     0.269 C 
ATOM     47  O8  KQV A 701      14.752  54.997  -3.032  1.00  0.00    -0.266 OA
ATOM     48  H   KQV A 701      13.462  54.537  -0.232  1.00  0.00     0.163 HD
BRANCH  46  49
ATOM     49  C5  KQV A 701      13.653  53.057  -2.236  1.00  0.00     0.102 A 
ATOM     50  N   KQV A 701      14.383  51.891  -2.119  1.00  0.00    -0.351 N 
ATOM     51  C4  KQV A 701      13.526  50.812  -2.257  1.00  0.00     0.043 A 
ATOM     52  H   KQV A 701      15.354  51.836  -1.963  1.00  0.00     0.166 HD
ATOM     53  C3  KQV A 701      12.230  51.317  -2.467  1.00  0.00    -0.006 A 
ATOM     54  C38 KQV A 701      13.776  49.441  -2.196  1.00  0.00     0.031 A 
ATOM     55  C2  KQV A 701      11.177  50.414  -2.603  1.00  0.00     0.027 A 
ATOM     56  C37 KQV A 701      12.336  52.744  -2.454  1.00  0.00     0.049 A 
ATOM     57  C1  KQV A 701      11.393  49.041  -2.521  1.00  0.00     0.028 A 
ATOM     58  C39 KQV A 701      12.697  48.571  -2.332  1.00  0.00     0.016 A 
BRANCH  57  59
ATOM     59  C   KQV A 701      10.131  48.152  -2.543  1.00  0.00     0.380 C 
ATOM     60  F   KQV A 701      10.330  47.064  -3.332  1.00  0.00    -0.185 F 
ATOM     61  F1  KQV A 701       9.120  48.751  -3.211  1.00  0.00    -0.185 F 
BRANCH  59  62
ATOM     62  P   KQV A 701       9.596  47.594  -0.826  1.00  0.00     0.339 P 
ATOM     63  O1  KQV A 701       8.247  46.870  -1.036  1.00  0.00    -0.635 OA
ATOM     64  O   KQV A 701      10.647  46.549  -0.406  1.00  0.00    -0.635 OA
ATOM     65  O2  KQV A 701       9.507  48.738   0.135  1.00  0.00    -0.635 OA
ENDBRANCH  59  62
ENDBRANCH  57  59
ENDBRANCH  46  49
ENDBRANCH   1  45
TORSDOF 13
ENDMDL
MODEL 16
REMARK VINA RESULT:    -6.030      2.327      2.768
REMARK INTER + INTRA:         -12.951
REMARK INTER:                 -10.709
REMARK INTRA:                  -2.242
REMARK UNBOUND:                -2.339
REMARK  13 active torsions:
REMARK  status: ('A' for Active; 'I' for Inactive)
REMARK    1  A    between atoms: C1_1  and  C_13 
REMARK    2  A    between atoms: C5_5  and  C6_6 
REMARK       I    between atoms: C6_6  and  N1_10 
REMARK    3  A    between atoms: C7_7  and  N1_10 
REMARK    4  A    between atoms: C_13  and  P_20 
REMARK       I    between atoms: N6_24  and  C34_25 
REMARK    5  A    between atoms: C9_34  and  C10_35 
REMARK       I    between atoms: C10_35  and  N3_37 
REMARK    6  A    between atoms: N3_37  and  C11_38 
REMARK    7  A    between atoms: C11_38  and  C15_44 
REMARK    8  A    between atoms: C11_38  and  C12_39 
REMARK    9  A    between atoms: C12_39  and  C13_40 
REMARK   10  A    between atoms: C13_40  and  C14_41 
REMARK       I    between atoms: C14_41  and  N4_43 
REMARK       I    between atoms: C15_44  and  N5_46 
REMARK   11  A    between atoms: N5_46  and  C16_47 
REMARK   12  A    between atoms: C16_47  and  C17_54 
REMARK   13  A    between atoms: C16_47  and  C23_48 
ROOT
ATOM      1  C7  KQV A 701      15.177  54.260  -2.593  1.00  0.00     0.195 C 
ATOM      2  C8  KQV A 701      15.348  55.157  -1.337  1.00  0.00     0.245 C 
ATOM      3  N2  KQV A 701      16.394  56.203  -1.395  1.00  0.00    -0.332 N 
ATOM      4  C36 KQV A 701      14.456  55.099  -3.702  1.00  0.00     0.160 C 
ATOM      5  N6  KQV A 701      15.469  55.731  -4.659  1.00  0.00    -0.350 N 
ATOM      6  C34 KQV A 701      15.865  55.165  -5.834  1.00  0.00     0.215 C 
ATOM      7  O6  KQV A 701      15.583  55.681  -6.906  1.00  0.00    -0.274 OA
ATOM      8  C35 KQV A 701      16.689  53.912  -5.778  1.00  0.00     0.117 C 
ATOM      9  C33 KQV A 701      15.961  57.070  -4.302  1.00  0.00     0.128 C 
ATOM     10  C32 KQV A 701      17.295  57.102  -3.584  1.00  0.00     0.045 C 
ATOM     11  C31 KQV A 701      17.532  56.228  -2.342  1.00  0.00     0.089 C 
ATOM     12  O7  KQV A 701      14.649  55.006  -0.348  1.00  0.00    -0.271 OA
ATOM     13  C30 KQV A 701      18.690  56.662  -1.443  1.00  0.00     0.028 C 
ATOM     14  C29 KQV A 701      18.025  57.556  -0.387  1.00  0.00     0.037 C 
ATOM     15  C9  KQV A 701      16.696  56.849  -0.115  1.00  0.00     0.179 C 
ENDROOT
BRANCH  15  16
ATOM     16  C10 KQV A 701      15.611  57.831   0.318  1.00  0.00     0.241 C 
ATOM     17  O5  KQV A 701      15.214  58.712  -0.442  1.00  0.00    -0.271 OA
ATOM     18  N3  KQV A 701      15.128  57.639   1.551  1.00  0.00    -0.346 N 
ATOM     19  H   KQV A 701      15.554  56.956   2.118  1.00  0.00     0.163 HD
BRANCH  18  20
ATOM     20  C11 KQV A 701      14.008  58.386   2.098  1.00  0.00     0.177 C 
BRANCH  20  21
ATOM     21  C15 KQV A 701      14.404  59.777   2.596  1.00  0.00     0.241 C 
ATOM     22  N5  KQV A 701      13.426  60.694   2.673  1.00  0.00    -0.347 N 
ATOM     23  H   KQV A 701      12.498  60.411   2.505  1.00  0.00     0.163 HD
ATOM     24  O4  KQV A 701      15.576  60.012   2.888  1.00  0.00    -0.271 OA
BRANCH  22  25
ATOM     25  C16 KQV A 701      13.689  62.103   2.998  1.00  0.00     0.151 C 
BRANCH  25  26
ATOM     26  C17 KQV A 701      12.857  62.603   4.172  1.00  0.00    -0.031 A 
ATOM     27  C18 KQV A 701      12.815  63.955   4.495  1.00  0.00     0.009 A 
ATOM     28  C19 KQV A 701      12.118  64.393   5.613  1.00  0.00     0.001 A 
ATOM     29  C20 KQV A 701      11.447  63.487   6.414  1.00  0.00     0.000 A 
ATOM     30  C21 KQV A 701      11.474  62.142   6.096  1.00  0.00     0.001 A 
ATOM     31  C22 KQV A 701      12.172  61.703   4.981  1.00  0.00     0.009 A 
ENDBRANCH  25  26
BRANCH  25  32
ATOM     32  C23 KQV A 701      13.654  63.023   1.781  1.00  0.00    -0.031 A 
ATOM     33  C28 KQV A 701      12.790  62.776   0.719  1.00  0.00     0.009 A 
ATOM     34  C27 KQV A 701      12.819  63.574  -0.416  1.00  0.00     0.001 A 
ATOM     35  C26 KQV A 701      13.707  64.630  -0.503  1.00  0.00     0.000 A 
ATOM     36  C25 KQV A 701      14.561  64.893   0.552  1.00  0.00     0.001 A 
ATOM     37  C24 KQV A 701      14.532  64.098   1.688  1.00  0.00     0.009 A 
ENDBRANCH  25  32
ENDBRANCH  22  25
ENDBRANCH  20  21
BRANCH  20  38
ATOM     38  C12 KQV A 701      13.317  57.592   3.210  1.00  0.00     0.044 C 
BRANCH  38  39
ATOM     39  C13 KQV A 701      14.294  56.977   4.218  1.00  0.00     0.105 C 
BRANCH  39  40
ATOM     40  C14 KQV A 701      14.202  55.474   4.355  1.00  0.00     0.215 C 
ATOM     41  N4  KQV A 701      13.075  54.921   3.936  1.00  0.00    -0.370 N 
ATOM     42  H   KQV A 701      12.356  55.486   3.571  1.00  0.00     0.159 HD
ATOM     43  H   KQV A 701      12.955  53.946   3.990  1.00  0.00     0.159 HD
ATOM     44  O3  KQV A 701      15.136  54.815   4.821  1.00  0.00    -0.274 OA
ENDBRANCH  39  40
ENDBRANCH  38  39
ENDBRANCH  20  38
ENDBRANCH  18  20
ENDBRANCH  15  16
BRANCH   1  45
ATOM     45  N1  KQV A 701      14.719  52.917  -2.268  1.00  0.00    -0.341 N 
ATOM     46  C6  KQV A 701      13.431  52.527  -2.206  1.00  0.00     0.269 C 
ATOM     47  O8  KQV A 701      12.482  53.313  -2.158  1.00  0.00    -0.266 OA
ATOM     48  H   KQV A 701      15.406  52.238  -2.078  1.00  0.00     0.163 HD
BRANCH  46  49
ATOM     49  C5  KQV A 701      13.206  51.061  -2.207  1.00  0.00     0.102 A 
ATOM     50  N   KQV A 701      14.170  50.118  -1.906  1.00  0.00    -0.351 N 
ATOM     51  C4  KQV A 701      13.590  48.861  -1.943  1.00  0.00     0.043 A 
ATOM     52  H   KQV A 701      15.114  50.309  -1.700  1.00  0.00     0.166 HD
ATOM     53  C3  KQV A 701      12.233  49.022  -2.276  1.00  0.00    -0.006 A 
ATOM     54  C38 KQV A 701      14.138  47.602  -1.694  1.00  0.00     0.031 A 
ATOM     55  C2  KQV A 701      11.424  47.889  -2.343  1.00  0.00     0.027 A 
ATOM     56  C37 KQV A 701      12.014  50.426  -2.442  1.00  0.00     0.049 A 
ATOM     57  C1  KQV A 701      11.938  46.623  -2.074  1.00  0.00     0.028 A 
ATOM     58  C39 KQV A 701      13.296  46.495  -1.765  1.00  0.00     0.016 A 
BRANCH  57  59
ATOM     59  C   KQV A 701      10.914  45.468  -2.038  1.00  0.00     0.380 C 
ATOM     60  F   KQV A 701      11.548  44.276  -1.882  1.00  0.00    -0.185 F 
ATOM     61  F1  KQV A 701      10.345  45.280  -3.251  1.00  0.00    -0.185 F 
BRANCH  59  62
ATOM     62  P   KQV A 701       9.620  45.674  -0.686  1.00  0.00     0.339 P 
ATOM     63  O1  KQV A 701       9.081  44.250  -0.419  1.00  0.00    -0.635 OA
ATOM     64  O   KQV A 701      10.414  46.132   0.552  1.00  0.00    -0.635 OA
ATOM     65  O2  KQV A 701       8.550  46.646  -1.075  1.00  0.00    -0.635 OA
ENDBRANCH  59  62
ENDBRANCH  57  59
ENDBRANCH  46  49
ENDBRANCH   1  45
TORSDOF 13
ENDMDL
MODEL 17
REMARK VINA RESULT:    -5.949      2.294      4.950
REMARK INTER + INTRA:         -12.809
REMARK INTER:                  -8.961
REMARK INTRA:                  -3.848
REMARK UNBOUND:                -2.339
REMARK  13 active torsions:
REMARK  status: ('A' for Active; 'I' for Inactive)
REMARK    1  A    between atoms: C1_1  and  C_13 
REMARK    2  A    between atoms: C5_5  and  C6_6 
REMARK       I    between atoms: C6_6  and  N1_10 
REMARK    3  A    between atoms: C7_7  and  N1_10 
REMARK    4  A    between atoms: C_13  and  P_20 
REMARK       I    between atoms: N6_24  and  C34_25 
REMARK    5  A    between atoms: C9_34  and  C10_35 
REMARK       I    between atoms: C10_35  and  N3_37 
REMARK    6  A    between atoms: N3_37  and  C11_38 
REMARK    7  A    between atoms: C11_38  and  C15_44 
REMARK    8  A    between atoms: C11_38  and  C12_39 
REMARK    9  A    between atoms: C12_39  and  C13_40 
REMARK   10  A    between atoms: C13_40  and  C14_41 
REMARK       I    between atoms: C14_41  and  N4_43 
REMARK       I    between atoms: C15_44  and  N5_46 
REMARK   11  A    between atoms: N5_46  and  C16_47 
REMARK   12  A    between atoms: C16_47  and  C17_54 
REMARK   13  A    between atoms: C16_47  and  C23_48 
ROOT
ATOM      1  C7  KQV A 701      14.617  53.474  -2.300  1.00  0.00     0.195 C 
ATOM      2  C8  KQV A 701      14.369  54.737  -1.429  1.00  0.00     0.245 C 
ATOM      3  N2  KQV A 701      15.565  55.459  -0.937  1.00  0.00    -0.332 N 
ATOM      4  C36 KQV A 701      15.078  53.942  -3.722  1.00  0.00     0.160 C 
ATOM      5  N6  KQV A 701      16.604  53.950  -3.831  1.00  0.00    -0.350 N 
ATOM      6  C34 KQV A 701      17.340  52.910  -4.315  1.00  0.00     0.215 C 
ATOM      7  O6  KQV A 701      17.964  53.016  -5.362  1.00  0.00    -0.274 OA
ATOM      8  C35 KQV A 701      17.397  51.643  -3.512  1.00  0.00     0.117 C 
ATOM      9  C33 KQV A 701      17.280  55.202  -3.463  1.00  0.00     0.128 C 
ATOM     10  C32 KQV A 701      17.829  55.254  -2.052  1.00  0.00     0.045 C 
ATOM     11  C31 KQV A 701      16.933  54.899  -0.854  1.00  0.00     0.089 C 
ATOM     12  O7  KQV A 701      13.240  55.115  -1.165  1.00  0.00    -0.271 OA
ATOM     13  C30 KQV A 701      17.411  55.417   0.503  1.00  0.00     0.028 C 
ATOM     14  C29 KQV A 701      16.682  56.758   0.666  1.00  0.00     0.037 C 
ATOM     15  C9  KQV A 701      15.297  56.479   0.081  1.00  0.00     0.179 C 
ENDROOT
BRANCH  15  16
ATOM     16  C10 KQV A 701      14.664  57.739  -0.502  1.00  0.00     0.241 C 
ATOM     17  O5  KQV A 701      15.360  58.662  -0.922  1.00  0.00    -0.271 OA
ATOM     18  N3  KQV A 701      13.326  57.740  -0.538  1.00  0.00    -0.346 N 
ATOM     19  H   KQV A 701      12.847  56.991  -0.115  1.00  0.00     0.163 HD
BRANCH  18  20
ATOM     20  C11 KQV A 701      12.543  58.790  -1.168  1.00  0.00     0.177 C 
BRANCH  20  21
ATOM     21  C15 KQV A 701      12.325  60.000  -0.258  1.00  0.00     0.241 C 
ATOM     22  N5  KQV A 701      13.192  60.158   0.755  1.00  0.00    -0.347 N 
ATOM     23  H   KQV A 701      13.971  59.559   0.809  1.00  0.00     0.163 HD
ATOM     24  O4  KQV A 701      11.382  60.762  -0.467  1.00  0.00    -0.271 OA
BRANCH  22  25
ATOM     25  C16 KQV A 701      13.020  61.191   1.787  1.00  0.00     0.151 C 
BRANCH  25  26
ATOM     26  C17 KQV A 701      13.953  62.380   1.593  1.00  0.00    -0.031 A 
ATOM     27  C18 KQV A 701      15.325  62.252   1.780  1.00  0.00     0.009 A 
ATOM     28  C19 KQV A 701      16.158  63.357   1.679  1.00  0.00     0.001 A 
ATOM     29  C20 KQV A 701      15.632  64.600   1.380  1.00  0.00     0.000 A 
ATOM     30  C21 KQV A 701      14.271  64.738   1.182  1.00  0.00     0.001 A 
ATOM     31  C22 KQV A 701      13.436  63.634   1.286  1.00  0.00     0.009 A 
ENDBRANCH  25  26
BRANCH  25  32
ATOM     32  C23 KQV A 701      13.016  60.636   3.208  1.00  0.00    -0.031 A 
ATOM     33  C28 KQV A 701      12.599  61.416   4.282  1.00  0.00     0.009 A 
ATOM     34  C27 KQV A 701      12.672  60.929   5.579  1.00  0.00     0.001 A 
ATOM     35  C26 KQV A 701      13.158  59.657   5.820  1.00  0.00     0.000 A 
ATOM     36  C25 KQV A 701      13.562  58.868   4.760  1.00  0.00     0.001 A 
ATOM     37  C24 KQV A 701      13.488  59.352   3.462  1.00  0.00     0.009 A 
ENDBRANCH  25  32
ENDBRANCH  22  25
ENDBRANCH  20  21
BRANCH  20  38
ATOM     38  C12 KQV A 701      11.203  58.242  -1.666  1.00  0.00     0.044 C 
BRANCH  38  39
ATOM     39  C13 KQV A 701      11.268  57.662  -3.083  1.00  0.00     0.105 C 
BRANCH  39  40
ATOM     40  C14 KQV A 701      10.610  56.310  -3.246  1.00  0.00     0.215 C 
ATOM     41  N4  KQV A 701      10.662  55.509  -2.193  1.00  0.00    -0.370 N 
ATOM     42  H   KQV A 701      11.118  55.804  -1.372  1.00  0.00     0.159 HD
ATOM     43  H   KQV A 701      10.246  54.617  -2.231  1.00  0.00     0.159 HD
ATOM     44  O3  KQV A 701      10.052  55.991  -4.299  1.00  0.00    -0.274 OA
ENDBRANCH  39  40
ENDBRANCH  38  39
ENDBRANCH  20  38
ENDBRANCH  18  20
ENDBRANCH  15  16
BRANCH   1  45
ATOM     45  N1  KQV A 701      13.568  52.476  -2.154  1.00  0.00    -0.341 N 
ATOM     46  C6  KQV A 701      12.418  52.445  -2.855  1.00  0.00     0.269 C 
ATOM     47  O8  KQV A 701      11.996  53.399  -3.513  1.00  0.00    -0.266 OA
ATOM     48  H   KQV A 701      13.711  51.764  -1.489  1.00  0.00     0.163 HD
BRANCH  46  49
ATOM     49  C5  KQV A 701      11.669  51.166  -2.799  1.00  0.00     0.102 A 
ATOM     50  N   KQV A 701      10.994  50.604  -3.864  1.00  0.00    -0.351 N 
ATOM     51  C4  KQV A 701      10.470  49.385  -3.466  1.00  0.00     0.043 A 
ATOM     52  H   KQV A 701      10.900  51.004  -4.759  1.00  0.00     0.166 HD
ATOM     53  C3  KQV A 701      10.826  49.182  -2.121  1.00  0.00    -0.006 A 
ATOM     54  C38 KQV A 701       9.733  48.438  -4.178  1.00  0.00     0.031 A 
ATOM     55  C2  KQV A 701      10.437  47.996  -1.500  1.00  0.00     0.027 A 
ATOM     56  C37 KQV A 701      11.583  50.327  -1.718  1.00  0.00     0.049 A 
ATOM     57  C1  KQV A 701       9.723  47.023  -2.193  1.00  0.00     0.028 A 
ATOM     58  C39 KQV A 701       9.368  47.264  -3.525  1.00  0.00     0.016 A 
BRANCH  57  59
ATOM     59  C   KQV A 701       9.477  45.696  -1.443  1.00  0.00     0.380 C 
ATOM     60  F   KQV A 701       8.369  45.076  -1.926  1.00  0.00    -0.185 F 
ATOM     61  F1  KQV A 701       9.089  45.920  -0.167  1.00  0.00    -0.185 F 
BRANCH  59  62
ATOM     62  P   KQV A 701      10.945  44.521  -1.529  1.00  0.00     0.339 P 
ATOM     63  O1  KQV A 701      11.487  44.442  -0.083  1.00  0.00    -0.635 OA
ATOM     64  O   KQV A 701      10.334  43.154  -1.892  1.00  0.00    -0.635 OA
ATOM     65  O2  KQV A 701      11.971  44.974  -2.519  1.00  0.00    -0.635 OA
ENDBRANCH  59  62
ENDBRANCH  57  59
ENDBRANCH  46  49
ENDBRANCH   1  45
TORSDOF 13
ENDMDL
MODEL 18
REMARK VINA RESULT:    -5.860      3.457      6.568
REMARK INTER + INTRA:         -12.653
REMARK INTER:                  -8.125
REMARK INTRA:                  -4.528
REMARK UNBOUND:                -2.339
REMARK  13 active torsions:
REMARK  status: ('A' for Active; 'I' for Inactive)
REMARK    1  A    between atoms: C1_1  and  C_13 
REMARK    2  A    between atoms: C5_5  and  C6_6 
REMARK       I    between atoms: C6_6  and  N1_10 
REMARK    3  A    between atoms: C7_7  and  N1_10 
REMARK    4  A    between atoms: C_13  and  P_20 
REMARK       I    between atoms: N6_24  and  C34_25 
REMARK    5  A    between atoms: C9_34  and  C10_35 
REMARK       I    between atoms: C10_35  and  N3_37 
REMARK    6  A    between atoms: N3_37  and  C11_38 
REMARK    7  A    between atoms: C11_38  and  C15_44 
REMARK    8  A    between atoms: C11_38  and  C12_39 
REMARK    9  A    between atoms: C12_39  and  C13_40 
REMARK   10  A    between atoms: C13_40  and  C14_41 
REMARK       I    between atoms: C14_41  and  N4_43 
REMARK       I    between atoms: C15_44  and  N5_46 
REMARK   11  A    between atoms: N5_46  and  C16_47 
REMARK   12  A    between atoms: C16_47  and  C17_54 
REMARK   13  A    between atoms: C16_47  and  C23_48 
ROOT
ATOM      1  C7  KQV A 701      14.586  59.836   0.498  1.00  0.00     0.195 C 
ATOM      2  C8  KQV A 701      15.975  59.621   1.159  1.00  0.00     0.245 C 
ATOM      3  N2  KQV A 701      16.949  60.733   1.053  1.00  0.00    -0.332 N 
ATOM      4  C36 KQV A 701      13.759  60.815   1.398  1.00  0.00     0.160 C 
ATOM      5  N6  KQV A 701      13.885  62.257   0.903  1.00  0.00    -0.350 N 
ATOM      6  C34 KQV A 701      13.003  62.851   0.050  1.00  0.00     0.215 C 
ATOM      7  O6  KQV A 701      12.298  63.779   0.421  1.00  0.00    -0.274 OA
ATOM      8  C35 KQV A 701      12.944  62.361  -1.368  1.00  0.00     0.117 C 
ATOM      9  C33 KQV A 701      14.987  63.050   1.467  1.00  0.00     0.128 C 
ATOM     10  C32 KQV A 701      16.237  63.123   0.614  1.00  0.00     0.045 C 
ATOM     11  C31 KQV A 701      16.886  61.839   0.071  1.00  0.00     0.089 C 
ATOM     12  O7  KQV A 701      16.250  58.585   1.739  1.00  0.00    -0.271 OA
ATOM     13  C30 KQV A 701      18.347  61.971  -0.360  1.00  0.00     0.028 C 
ATOM     14  C29 KQV A 701      19.140  61.554   0.886  1.00  0.00     0.037 C 
ATOM     15  C9  KQV A 701      18.317  60.399   1.457  1.00  0.00     0.179 C 
ENDROOT
BRANCH  15  16
ATOM     16  C10 KQV A 701      18.472  60.286   2.971  1.00  0.00     0.241 C 
ATOM     17  O5  KQV A 701      19.259  59.484   3.469  1.00  0.00    -0.271 OA
ATOM     18  N3  KQV A 701      17.716  61.129   3.685  1.00  0.00    -0.346 N 
ATOM     19  H   KQV A 701      17.061  61.688   3.208  1.00  0.00     0.163 HD
BRANCH  18  20
ATOM     20  C11 KQV A 701      17.813  61.263   5.130  1.00  0.00     0.177 C 
BRANCH  20  21
ATOM     21  C15 KQV A 701      16.769  60.432   5.877  1.00  0.00     0.241 C 
ATOM     22  N5  KQV A 701      15.743  59.957   5.153  1.00  0.00    -0.347 N 
ATOM     23  H   KQV A 701      15.758  60.076   4.176  1.00  0.00     0.163 HD
ATOM     24  O4  KQV A 701      16.888  60.242   7.087  1.00  0.00    -0.271 OA
BRANCH  22  25
ATOM     25  C16 KQV A 701      14.598  59.266   5.764  1.00  0.00     0.151 C 
BRANCH  25  26
ATOM     26  C17 KQV A 701      14.299  57.924   5.108  1.00  0.00    -0.031 A 
ATOM     27  C18 KQV A 701      14.805  56.740   5.635  1.00  0.00     0.009 A 
ATOM     28  C19 KQV A 701      14.594  55.531   4.987  1.00  0.00     0.001 A 
ATOM     29  C20 KQV A 701      13.866  55.489   3.812  1.00  0.00     0.000 A 
ATOM     30  C21 KQV A 701      13.351  56.658   3.284  1.00  0.00     0.001 A 
ATOM     31  C22 KQV A 701      13.564  57.868   3.929  1.00  0.00     0.009 A 
ENDBRANCH  25  26
BRANCH  25  32
ATOM     32  C23 KQV A 701      13.371  60.156   5.932  1.00  0.00    -0.031 A 
ATOM     33  C28 KQV A 701      13.102  61.186   5.036  1.00  0.00     0.009 A 
ATOM     34  C27 KQV A 701      12.027  62.039   5.239  1.00  0.00     0.001 A 
ATOM     35  C26 KQV A 701      11.204  61.872   6.337  1.00  0.00     0.000 A 
ATOM     36  C25 KQV A 701      11.452  60.844   7.227  1.00  0.00     0.001 A 
ATOM     37  C24 KQV A 701      12.526  59.989   7.024  1.00  0.00     0.009 A 
ENDBRANCH  25  32
ENDBRANCH  22  25
ENDBRANCH  20  21
BRANCH  20  38
ATOM     38  C12 KQV A 701      17.729  62.734   5.545  1.00  0.00     0.044 C 
BRANCH  38  39
ATOM     39  C13 KQV A 701      16.360  63.369   5.272  1.00  0.00     0.105 C 
BRANCH  39  40
ATOM     40  C14 KQV A 701      15.688  63.973   6.484  1.00  0.00     0.215 C 
ATOM     41  N4  KQV A 701      16.135  65.160   6.864  1.00  0.00    -0.370 N 
ATOM     42  H   KQV A 701      16.869  65.591   6.369  1.00  0.00     0.159 HD
ATOM     43  H   KQV A 701      15.734  65.612   7.641  1.00  0.00     0.159 HD
ATOM     44  O3  KQV A 701      14.771  63.388   7.067  1.00  0.00    -0.274 OA
ENDBRANCH  39  40
ENDBRANCH  38  39
ENDBRANCH  20  38
ENDBRANCH  18  20
ENDBRANCH  15  16
BRANCH   1  45
ATOM     45  N1  KQV A 701      13.994  58.596   0.017  1.00  0.00    -0.341 N 
ATOM     46  C6  KQV A 701      12.770  58.479  -0.533  1.00  0.00     0.269 C 
ATOM     47  O8  KQV A 701      11.902  59.352  -0.458  1.00  0.00    -0.266 OA
ATOM     48  H   KQV A 701      14.532  57.776   0.102  1.00  0.00     0.163 HD
BRANCH  46  49
ATOM     49  C5  KQV A 701      12.515  57.213  -1.261  1.00  0.00     0.102 A 
ATOM     50  N   KQV A 701      11.935  57.129  -2.512  1.00  0.00    -0.351 N 
ATOM     51  C4  KQV A 701      11.915  55.801  -2.906  1.00  0.00     0.043 A 
ATOM     52  H   KQV A 701      11.591  57.888  -3.036  1.00  0.00     0.166 HD
ATOM     53  C3  KQV A 701      12.496  55.038  -1.877  1.00  0.00    -0.006 A 
ATOM     54  C38 KQV A 701      11.456  55.210  -4.083  1.00  0.00     0.031 A 
ATOM     55  C2  KQV A 701      12.621  53.661  -2.057  1.00  0.00     0.027 A 
ATOM     56  C37 KQV A 701      12.866  55.955  -0.842  1.00  0.00     0.049 A 
ATOM     57  C1  KQV A 701      12.194  53.049  -3.232  1.00  0.00     0.028 A 
ATOM     58  C39 KQV A 701      11.603  53.834  -4.228  1.00  0.00     0.016 A 
BRANCH  57  59
ATOM     59  C   KQV A 701      12.517  51.546  -3.371  1.00  0.00     0.380 C 
ATOM     60  F   KQV A 701      13.512  51.192  -2.516  1.00  0.00    -0.185 F 
ATOM     61  F1  KQV A 701      13.114  51.281  -4.555  1.00  0.00    -0.185 F 
BRANCH  59  62
ATOM     62  P   KQV A 701      11.019  50.443  -3.084  1.00  0.00     0.339 P 
ATOM     63  O1  KQV A 701      11.463  49.030  -3.529  1.00  0.00    -0.635 OA
ATOM     64  O   KQV A 701      10.826  50.430  -1.556  1.00  0.00    -0.635 OA
ATOM     65  O2  KQV A 701       9.809  50.937  -3.812  1.00  0.00    -0.635 OA
ENDBRANCH  59  62
ENDBRANCH  57  59
ENDBRANCH  46  49
ENDBRANCH   1  45
TORSDOF 13
ENDMDL
MODEL 19
REMARK VINA RESULT:    -5.799      3.147      6.813
REMARK INTER + INTRA:         -12.545
REMARK INTER:                  -8.865
REMARK INTRA:                  -3.680
REMARK UNBOUND:                -2.339
REMARK  13 active torsions:
REMARK  status: ('A' for Active; 'I' for Inactive)
REMARK    1  A    between atoms: C1_1  and  C_13 
REMARK    2  A    between atoms: C5_5  and  C6_6 
REMARK       I    between atoms: C6_6  and  N1_10 
REMARK    3  A    between atoms: C7_7  and  N1_10 
REMARK    4  A    between atoms: C_13  and  P_20 
REMARK       I    between atoms: N6_24  and  C34_25 
REMARK    5  A    between atoms: C9_34  and  C10_35 
REMARK       I    between atoms: C10_35  and  N3_37 
REMARK    6  A    between atoms: N3_37  and  C11_38 
REMARK    7  A    between atoms: C11_38  and  C15_44 
REMARK    8  A    between atoms: C11_38  and  C12_39 
REMARK    9  A    between atoms: C12_39  and  C13_40 
REMARK   10  A    between atoms: C13_40  and  C14_41 
REMARK       I    between atoms: C14_41  and  N4_43 
REMARK       I    between atoms: C15_44  and  N5_46 
REMARK   11  A    between atoms: N5_46  and  C16_47 
REMARK   12  A    between atoms: C16_47  and  C17_54 
REMARK   13  A    between atoms: C16_47  and  C23_48 
ROOT
ATOM      1  C7  KQV A 701      13.653  54.629  -2.596  1.00  0.00     0.195 C 
ATOM      2  C8  KQV A 701      13.235  55.717  -1.569  1.00  0.00     0.245 C 
ATOM      3  N2  KQV A 701      14.322  56.516  -0.957  1.00  0.00    -0.332 N 
ATOM      4  C36 KQV A 701      14.055  55.341  -3.931  1.00  0.00     0.160 C 
ATOM      5  N6  KQV A 701      15.567  55.564  -4.003  1.00  0.00    -0.350 N 
ATOM      6  C34 KQV A 701      16.437  54.705  -4.605  1.00  0.00     0.215 C 
ATOM      7  O6  KQV A 701      17.046  55.033  -5.614  1.00  0.00    -0.274 OA
ATOM      8  C35 KQV A 701      16.658  53.359  -3.979  1.00  0.00     0.117 C 
ATOM      9  C33 KQV A 701      16.069  56.832  -3.455  1.00  0.00     0.128 C 
ATOM     10  C32 KQV A 701      16.599  56.762  -2.037  1.00  0.00     0.045 C 
ATOM     11  C31 KQV A 701      15.752  56.134  -0.919  1.00  0.00     0.089 C 
ATOM     12  O7  KQV A 701      12.065  55.905  -1.283  1.00  0.00    -0.271 OA
ATOM     13  C30 KQV A 701      16.151  56.520   0.506  1.00  0.00     0.028 C 
ATOM     14  C29 KQV A 701      15.250  57.719   0.831  1.00  0.00     0.037 C 
ATOM     15  C9  KQV A 701      13.917  57.344   0.182  1.00  0.00     0.179 C 
ENDROOT
BRANCH  15  16
ATOM     16  C10 KQV A 701      13.125  58.578  -0.241  1.00  0.00     0.241 C 
ATOM     17  O5  KQV A 701      12.460  59.213   0.575  1.00  0.00    -0.271 OA
ATOM     18  N3  KQV A 701      13.234  58.910  -1.533  1.00  0.00    -0.346 N 
ATOM     19  H   KQV A 701      13.729  58.304  -2.130  1.00  0.00     0.163 HD
BRANCH  18  20
ATOM     20  C11 KQV A 701      12.659  60.119  -2.100  1.00  0.00     0.177 C 
BRANCH  20  21
ATOM     21  C15 KQV A 701      12.365  59.995  -3.596  1.00  0.00     0.241 C 
ATOM     22  N5  KQV A 701      11.251  59.329  -3.939  1.00  0.00    -0.347 N 
ATOM     23  H   KQV A 701      10.633  59.042  -3.229  1.00  0.00     0.163 HD
ATOM     24  O4  KQV A 701      13.142  60.482  -4.415  1.00  0.00    -0.271 OA
BRANCH  22  25
ATOM     25  C16 KQV A 701      10.920  59.012  -5.336  1.00  0.00     0.151 C 
BRANCH  25  26
ATOM     26  C17 KQV A 701       9.810  59.894  -5.894  1.00  0.00    -0.031 A 
ATOM     27  C18 KQV A 701      10.085  60.889  -6.825  1.00  0.00     0.009 A 
ATOM     28  C19 KQV A 701       9.082  61.739  -7.269  1.00  0.00     0.001 A 
ATOM     29  C20 KQV A 701       7.790  61.597  -6.797  1.00  0.00     0.000 A 
ATOM     30  C21 KQV A 701       7.503  60.605  -5.879  1.00  0.00     0.001 A 
ATOM     31  C22 KQV A 701       8.506  59.757  -5.432  1.00  0.00     0.009 A 
ENDBRANCH  25  26
BRANCH  25  32
ATOM     32  C23 KQV A 701      10.708  57.522  -5.587  1.00  0.00    -0.031 A 
ATOM     33  C28 KQV A 701      10.802  56.990  -6.869  1.00  0.00     0.009 A 
ATOM     34  C27 KQV A 701      10.532  55.649  -7.099  1.00  0.00     0.001 A 
ATOM     35  C26 KQV A 701      10.170  54.821  -6.052  1.00  0.00     0.000 A 
ATOM     36  C25 KQV A 701      10.088  55.335  -4.772  1.00  0.00     0.001 A 
ATOM     37  C24 KQV A 701      10.359  56.676  -4.540  1.00  0.00     0.009 A 
ENDBRANCH  25  32
ENDBRANCH  22  25
ENDBRANCH  20  21
BRANCH  20  38
ATOM     38  C12 KQV A 701      13.560  61.327  -1.826  1.00  0.00     0.044 C 
BRANCH  38  39
ATOM     39  C13 KQV A 701      12.784  62.598  -1.464  1.00  0.00     0.105 C 
BRANCH  39  40
ATOM     40  C14 KQV A 701      12.430  62.730  -0.000  1.00  0.00     0.215 C 
ATOM     41  N4  KQV A 701      11.606  61.812   0.483  1.00  0.00    -0.370 N 
ATOM     42  H   KQV A 701      11.258  61.105  -0.107  1.00  0.00     0.159 HD
ATOM     43  H   KQV A 701      11.343  61.837   1.431  1.00  0.00     0.159 HD
ATOM     44  O3  KQV A 701      12.897  63.638   0.693  1.00  0.00    -0.274 OA
ENDBRANCH  39  40
ENDBRANCH  38  39
ENDBRANCH  20  38
ENDBRANCH  18  20
ENDBRANCH  15  16
BRANCH   1  45
ATOM     45  N1  KQV A 701      12.745  53.491  -2.610  1.00  0.00    -0.341 N 
ATOM     46  C6  KQV A 701      12.692  52.548  -3.571  1.00  0.00     0.269 C 
ATOM     47  O8  KQV A 701      13.218  52.674  -4.679  1.00  0.00    -0.266 OA
ATOM     48  H   KQV A 701      12.120  53.403  -1.855  1.00  0.00     0.163 HD
BRANCH  46  49
ATOM     49  C5  KQV A 701      11.955  51.312  -3.213  1.00  0.00     0.102 A 
ATOM     50  N   KQV A 701      11.170  50.584  -4.086  1.00  0.00    -0.351 N 
ATOM     51  C4  KQV A 701      10.693  49.463  -3.428  1.00  0.00     0.043 A 
ATOM     52  H   KQV A 701      10.982  50.824  -5.023  1.00  0.00     0.166 HD
ATOM     53  C3  KQV A 701      11.190  49.492  -2.113  1.00  0.00    -0.006 A 
ATOM     54  C38 KQV A 701       9.886  48.420  -3.882  1.00  0.00     0.031 A 
ATOM     55  C2  KQV A 701      10.870  48.440  -1.256  1.00  0.00     0.027 A 
ATOM     56  C37 KQV A 701      11.984  50.677  -1.998  1.00  0.00     0.049 A 
ATOM     57  C1  KQV A 701      10.087  47.374  -1.690  1.00  0.00     0.028 A 
ATOM     58  C39 KQV A 701       9.592  47.385  -2.999  1.00  0.00     0.016 A 
BRANCH  57  59
ATOM     59  C   KQV A 701       9.923  46.203  -0.697  1.00  0.00     0.380 C 
ATOM     60  F   KQV A 701       8.639  46.126  -0.261  1.00  0.00    -0.185 F 
ATOM     61  F1  KQV A 701      10.557  46.457   0.470  1.00  0.00    -0.185 F 
BRANCH  59  62
ATOM     62  P   KQV A 701      10.441  44.545  -1.423  1.00  0.00     0.339 P 
ATOM     63  O1  KQV A 701      10.712  43.634  -0.204  1.00  0.00    -0.635 OA
ATOM     64  O   KQV A 701       9.187  44.024  -2.149  1.00  0.00    -0.635 OA
ATOM     65  O2  KQV A 701      11.621  44.674  -2.335  1.00  0.00    -0.635 OA
ENDBRANCH  59  62
ENDBRANCH  57  59
ENDBRANCH  46  49
ENDBRANCH   1  45
TORSDOF 13
ENDMDL
MODEL 20
REMARK VINA RESULT:    -5.790      3.315      5.804
REMARK INTER + INTRA:         -12.530
REMARK INTER:                  -8.320
REMARK INTRA:                  -4.209
REMARK UNBOUND:                -2.339
REMARK  13 active torsions:
REMARK  status: ('A' for Active; 'I' for Inactive)
REMARK    1  A    between atoms: C1_1  and  C_13 
REMARK    2  A    between atoms: C5_5  and  C6_6 
REMARK       I    between atoms: C6_6  and  N1_10 
REMARK    3  A    between atoms: C7_7  and  N1_10 
REMARK    4  A    between atoms: C_13  and  P_20 
REMARK       I    between atoms: N6_24  and  C34_25 
REMARK    5  A    between atoms: C9_34  and  C10_35 
REMARK       I    between atoms: C10_35  and  N3_37 
REMARK    6  A    between atoms: N3_37  and  C11_38 
REMARK    7  A    between atoms: C11_38  and  C15_44 
REMARK    8  A    between atoms: C11_38  and  C12_39 
REMARK    9  A    between atoms: C12_39  and  C13_40 
REMARK   10  A    between atoms: C13_40  and  C14_41 
REMARK       I    between atoms: C14_41  and  N4_43 
REMARK       I    between atoms: C15_44  and  N5_46 
REMARK   11  A    between atoms: N5_46  and  C16_47 
REMARK   12  A    between atoms: C16_47  and  C17_54 
REMARK   13  A    between atoms: C16_47  and  C23_48 
ROOT
ATOM      1  C7  KQV A 701      13.304  55.305  -3.779  1.00  0.00     0.195 C 
ATOM      2  C8  KQV A 701      14.551  55.697  -4.619  1.00  0.00     0.245 C 
ATOM      3  N2  KQV A 701      14.435  56.904  -5.471  1.00  0.00    -0.332 N 
ATOM      4  C36 KQV A 701      13.190  56.301  -2.575  1.00  0.00     0.160 C 
ATOM      5  N6  KQV A 701      12.237  57.453  -2.902  1.00  0.00    -0.350 N 
ATOM      6  C34 KQV A 701      10.911  57.460  -2.584  1.00  0.00     0.215 C 
ATOM      7  O6  KQV A 701      10.467  58.251  -1.764  1.00  0.00    -0.274 OA
ATOM      8  C35 KQV A 701      10.004  56.498  -3.293  1.00  0.00     0.117 C 
ATOM      9  C33 KQV A 701      12.836  58.644  -3.521  1.00  0.00     0.128 C 
ATOM     10  C32 KQV A 701      12.725  58.718  -5.030  1.00  0.00     0.045 C 
ATOM     11  C31 KQV A 701      13.166  57.532  -5.902  1.00  0.00     0.089 C 
ATOM     12  O7  KQV A 701      15.578  55.041  -4.576  1.00  0.00    -0.271 OA
ATOM     13  C30 KQV A 701      13.452  57.862  -7.368  1.00  0.00     0.028 C 
ATOM     14  C29 KQV A 701      14.963  58.133  -7.398  1.00  0.00     0.037 C 
ATOM     15  C9  KQV A 701      15.526  57.091  -6.431  1.00  0.00     0.179 C 
ENDROOT
BRANCH  15  16
ATOM     16  C10 KQV A 701      16.815  57.570  -5.770  1.00  0.00     0.241 C 
ATOM     17  O5  KQV A 701      17.874  56.968  -5.937  1.00  0.00    -0.271 OA
ATOM     18  N3  KQV A 701      16.699  58.682  -5.034  1.00  0.00    -0.346 N 
ATOM     19  H   KQV A 701      15.800  59.058  -4.895  1.00  0.00     0.163 HD
BRANCH  18  20
ATOM     20  C11 KQV A 701      17.832  59.364  -4.430  1.00  0.00     0.177 C 
BRANCH  20  21
ATOM     21  C15 KQV A 701      17.762  59.399  -2.902  1.00  0.00     0.241 C 
ATOM     22  N5  KQV A 701      16.634  58.939  -2.338  1.00  0.00    -0.347 N 
ATOM     23  H   KQV A 701      15.956  58.515  -2.913  1.00  0.00     0.163 HD
ATOM     24  O4  KQV A 701      18.707  59.849  -2.256  1.00  0.00    -0.271 OA
BRANCH  22  25
ATOM     25  C16 KQV A 701      16.373  59.044  -0.896  1.00  0.00     0.151 C 
BRANCH  25  26
ATOM     26  C17 KQV A 701      16.737  57.774  -0.136  1.00  0.00    -0.031 A 
ATOM     27  C18 KQV A 701      16.600  56.522  -0.726  1.00  0.00     0.009 A 
ATOM     28  C19 KQV A 701      16.858  55.367  -0.001  1.00  0.00     0.001 A 
ATOM     29  C20 KQV A 701      17.266  55.450   1.318  1.00  0.00     0.000 A 
ATOM     30  C21 KQV A 701      17.415  56.689   1.912  1.00  0.00     0.001 A 
ATOM     31  C22 KQV A 701      17.154  57.845   1.188  1.00  0.00     0.009 A 
ENDBRANCH  25  26
BRANCH  25  32
ATOM     32  C23 KQV A 701      14.984  59.582  -0.567  1.00  0.00    -0.031 A 
ATOM     33  C28 KQV A 701      14.604  60.866  -0.943  1.00  0.00     0.009 A 
ATOM     34  C27 KQV A 701      13.367  61.374  -0.572  1.00  0.00     0.001 A 
ATOM     35  C26 KQV A 701      12.493  60.606   0.174  1.00  0.00     0.000 A 
ATOM     36  C25 KQV A 701      12.854  59.324   0.541  1.00  0.00     0.001 A 
ATOM     37  C24 KQV A 701      14.089  58.813   0.171  1.00  0.00     0.009 A 
ENDBRANCH  25  32
ENDBRANCH  22  25
ENDBRANCH  20  21
BRANCH  20  38
ATOM     38  C12 KQV A 701      17.977  60.779  -4.995  1.00  0.00     0.044 C 
BRANCH  38  39
ATOM     39  C13 KQV A 701      16.672  61.347  -5.565  1.00  0.00     0.105 C 
BRANCH  39  40
ATOM     40  C14 KQV A 701      15.722  61.912  -4.533  1.00  0.00     0.215 C 
ATOM     41  N4  KQV A 701      16.208  62.872  -3.761  1.00  0.00    -0.370 N 
ATOM     42  H   KQV A 701      17.139  63.170  -3.874  1.00  0.00     0.159 HD
ATOM     43  H   KQV A 701      15.638  63.288  -3.075  1.00  0.00     0.159 HD
ATOM     44  O3  KQV A 701      14.562  61.501  -4.436  1.00  0.00    -0.274 OA
ENDBRANCH  39  40
ENDBRANCH  38  39
ENDBRANCH  20  38
ENDBRANCH  18  20
ENDBRANCH  15  16
BRANCH   1  45
ATOM     45  N1  KQV A 701      13.200  53.870  -3.563  1.00  0.00    -0.341 N 
ATOM     46  C6  KQV A 701      13.768  53.192  -2.547  1.00  0.00     0.269 C 
ATOM     47  O8  KQV A 701      14.657  53.657  -1.829  1.00  0.00    -0.266 OA
ATOM     48  H   KQV A 701      12.671  53.352  -4.212  1.00  0.00     0.163 HD
BRANCH  46  49
ATOM     49  C5  KQV A 701      13.249  51.820  -2.325  1.00  0.00     0.102 A 
ATOM     50  N   KQV A 701      14.033  50.685  -2.256  1.00  0.00    -0.351 N 
ATOM     51  C4  KQV A 701      13.220  49.599  -1.975  1.00  0.00     0.043 A 
ATOM     52  H   KQV A 701      15.009  50.654  -2.384  1.00  0.00     0.166 HD
ATOM     53  C3  KQV A 701      11.898  50.067  -1.868  1.00  0.00    -0.006 A 
ATOM     54  C38 KQV A 701      13.537  48.253  -1.787  1.00  0.00     0.031 A 
ATOM     55  C2  KQV A 701      10.892  49.155  -1.554  1.00  0.00     0.027 A 
ATOM     56  C37 KQV A 701      11.941  51.479  -2.098  1.00  0.00     0.049 A 
ATOM     57  C1  KQV A 701      11.183  47.811  -1.336  1.00  0.00     0.028 A 
ATOM     58  C39 KQV A 701      12.505  47.374  -1.470  1.00  0.00     0.016 A 
BRANCH  57  59
ATOM     59  C   KQV A 701      10.009  46.931  -0.855  1.00  0.00     0.380 C 
ATOM     60  F   KQV A 701       8.892  47.187  -1.584  1.00  0.00    -0.185 F 
ATOM     61  F1  KQV A 701       9.585  47.308   0.373  1.00  0.00    -0.185 F 
BRANCH  59  62
ATOM     62  P   KQV A 701      10.396  45.090  -0.923  1.00  0.00     0.339 P 
ATOM     63  O1  KQV A 701       9.079  44.383  -0.529  1.00  0.00    -0.635 OA
ATOM     64  O   KQV A 701      10.675  44.801  -2.410  1.00  0.00    -0.635 OA
ATOM     65  O2  KQV A 701      11.548  44.724  -0.040  1.00  0.00    -0.635 OA
ENDBRANCH  59  62
ENDBRANCH  57  59
ENDBRANCH  46  49
ENDBRANCH   1  45
TORSDOF 13
ENDMDL
MODEL 21
REMARK VINA RESULT:    -5.750      2.363      4.275
REMARK INTER + INTRA:         -12.458
REMARK INTER:                  -9.926
REMARK INTRA:                  -2.532
REMARK UNBOUND:                -2.339
REMARK  13 active torsions:
REMARK  status: ('A' for Active; 'I' for Inactive)
REMARK    1  A    between atoms: C1_1  and  C_13 
REMARK    2  A    between atoms: C5_5  and  C6_6 
REMARK       I    between atoms: C6_6  and  N1_10 
REMARK    3  A    between atoms: C7_7  and  N1_10 
REMARK    4  A    between atoms: C_13  and  P_20 
REMARK       I    between atoms: N6_24  and  C34_25 
REMARK    5  A    between atoms: C9_34  and  C10_35 
REMARK       I    between atoms: C10_35  and  N3_37 
REMARK    6  A    between atoms: N3_37  and  C11_38 
REMARK    7  A    between atoms: C11_38  and  C15_44 
REMARK    8  A    between atoms: C11_38  and  C12_39 
REMARK    9  A    between atoms: C12_39  and  C13_40 
REMARK   10  A    between atoms: C13_40  and  C14_41 
REMARK       I    between atoms: C14_41  and  N4_43 
REMARK       I    between atoms: C15_44  and  N5_46 
REMARK   11  A    between atoms: N5_46  and  C16_47 
REMARK   12  A    between atoms: C16_47  and  C17_54 
REMARK   13  A    between atoms: C16_47  and  C23_48 
ROOT
ATOM      1  C7  KQV A 701      14.453  55.052  -3.031  1.00  0.00     0.195 C 
ATOM      2  C8  KQV A 701      15.010  55.877  -1.838  1.00  0.00     0.245 C 
ATOM      3  N2  KQV A 701      15.864  57.041  -2.166  1.00  0.00    -0.332 N 
ATOM      4  C36 KQV A 701      13.299  55.873  -3.699  1.00  0.00     0.160 C 
ATOM      5  N6  KQV A 701      13.817  56.684  -4.888  1.00  0.00    -0.350 N 
ATOM      6  C34 KQV A 701      13.786  56.249  -6.180  1.00  0.00     0.215 C 
ATOM      7  O6  KQV A 701      13.076  56.798  -7.011  1.00  0.00    -0.274 OA
ATOM      8  C35 KQV A 701      14.672  55.101  -6.566  1.00  0.00     0.117 C 
ATOM      9  C33 KQV A 701      14.292  58.044  -4.597  1.00  0.00     0.128 C 
ATOM     10  C32 KQV A 701      15.790  58.185  -4.424  1.00  0.00     0.045 C 
ATOM     11  C31 KQV A 701      16.553  57.264  -3.458  1.00  0.00     0.089 C 
ATOM     12  O7  KQV A 701      14.753  55.578  -0.683  1.00  0.00    -0.271 OA
ATOM     13  C30 KQV A 701      17.924  57.771  -3.009  1.00  0.00     0.028 C 
ATOM     14  C29 KQV A 701      17.634  58.507  -1.693  1.00  0.00     0.037 C 
ATOM     15  C9  KQV A 701      16.572  57.632  -1.027  1.00  0.00     0.179 C 
ENDROOT
BRANCH  15  16
ATOM     16  C10 KQV A 701      15.652  58.446  -0.122  1.00  0.00     0.241 C 
ATOM     17  O5  KQV A 701      15.287  58.009   0.968  1.00  0.00    -0.271 OA
ATOM     18  N3  KQV A 701      15.309  59.651  -0.594  1.00  0.00    -0.346 N 
ATOM     19  H   KQV A 701      15.587  59.891  -1.507  1.00  0.00     0.163 HD
BRANCH  18  20
ATOM     20  C11 KQV A 701      14.546  60.623   0.172  1.00  0.00     0.177 C 
BRANCH  20  21
ATOM     21  C15 KQV A 701      15.008  60.732   1.626  1.00  0.00     0.241 C 
ATOM     22  N5  KQV A 701      14.176  60.248   2.563  1.00  0.00    -0.347 N 
ATOM     23  H   KQV A 701      13.368  59.764   2.274  1.00  0.00     0.163 HD
ATOM     24  O4  KQV A 701      16.088  61.258   1.888  1.00  0.00    -0.271 OA
BRANCH  22  25
ATOM     25  C16 KQV A 701      14.426  60.413   4.001  1.00  0.00     0.151 C 
BRANCH  25  26
ATOM     26  C17 KQV A 701      14.615  59.085   4.724  1.00  0.00    -0.031 A 
ATOM     27  C18 KQV A 701      15.414  58.994   5.859  1.00  0.00     0.009 A 
ATOM     28  C19 KQV A 701      15.645  57.767   6.465  1.00  0.00     0.001 A 
ATOM     29  C20 KQV A 701      15.072  56.619   5.951  1.00  0.00     0.000 A 
ATOM     30  C21 KQV A 701      14.269  56.698   4.829  1.00  0.00     0.001 A 
ATOM     31  C22 KQV A 701      14.040  57.924   4.220  1.00  0.00     0.009 A 
ENDBRANCH  25  26
BRANCH  25  32
ATOM     32  C23 KQV A 701      13.436  61.350   4.686  1.00  0.00    -0.031 A 
ATOM     33  C28 KQV A 701      12.418  60.854   5.494  1.00  0.00     0.009 A 
ATOM     34  C27 KQV A 701      11.476  61.708   6.050  1.00  0.00     0.001 A 
ATOM     35  C26 KQV A 701      11.542  63.068   5.811  1.00  0.00     0.000 A 
ATOM     36  C25 KQV A 701      12.557  63.574   5.021  1.00  0.00     0.001 A 
ATOM     37  C24 KQV A 701      13.500  62.722   4.466  1.00  0.00     0.009 A 
ENDBRANCH  25  32
ENDBRANCH  22  25
ENDBRANCH  20  21
BRANCH  20  38
ATOM     38  C12 KQV A 701      13.049  60.313   0.103  1.00  0.00     0.044 C 
BRANCH  38  39
ATOM     39  C13 KQV A 701      12.240  61.370  -0.656  1.00  0.00     0.105 C 
BRANCH  39  40
ATOM     40  C14 KQV A 701      12.547  62.800  -0.273  1.00  0.00     0.215 C 
ATOM     41  N4  KQV A 701      12.326  63.122   0.993  1.00  0.00    -0.370 N 
ATOM     42  H   KQV A 701      11.974  62.448   1.618  1.00  0.00     0.159 HD
ATOM     43  H   KQV A 701      12.514  64.036   1.309  1.00  0.00     0.159 HD
ATOM     44  O3  KQV A 701      12.987  63.605  -1.098  1.00  0.00    -0.274 OA
ENDBRANCH  39  40
ENDBRANCH  38  39
ENDBRANCH  20  38
ENDBRANCH  18  20
ENDBRANCH  15  16
BRANCH   1  45
ATOM     45  N1  KQV A 701      14.267  53.646  -2.704  1.00  0.00    -0.341 N 
ATOM     46  C6  KQV A 701      13.149  53.109  -2.180  1.00  0.00     0.269 C 
ATOM     47  O8  KQV A 701      12.247  53.777  -1.670  1.00  0.00    -0.266 OA
ATOM     48  H   KQV A 701      15.021  53.037  -2.882  1.00  0.00     0.163 HD
BRANCH  46  49
ATOM     49  C5  KQV A 701      13.052  51.631  -2.258  1.00  0.00     0.102 A 
ATOM     50  N   KQV A 701      14.129  50.769  -2.191  1.00  0.00    -0.351 N 
ATOM     51  C4  KQV A 701      13.660  49.466  -2.231  1.00  0.00     0.043 A 
ATOM     52  H   KQV A 701      15.074  51.037  -2.127  1.00  0.00     0.166 HD
ATOM     53  C3  KQV A 701      12.257  49.516  -2.325  1.00  0.00    -0.006 A 
ATOM     54  C38 KQV A 701      14.346  48.253  -2.172  1.00  0.00     0.031 A 
ATOM     55  C2  KQV A 701      11.547  48.317  -2.347  1.00  0.00     0.027 A 
ATOM     56  C37 KQV A 701      11.895  50.901  -2.345  1.00  0.00     0.049 A 
ATOM     57  C1  KQV A 701      12.204  47.093  -2.264  1.00  0.00     0.028 A 
ATOM     58  C39 KQV A 701      13.601  47.077  -2.191  1.00  0.00     0.016 A 
BRANCH  57  59
ATOM     59  C   KQV A 701      11.302  45.844  -2.153  1.00  0.00     0.380 C 
ATOM     60  F   KQV A 701      11.858  44.796  -2.814  1.00  0.00    -0.185 F 
ATOM     61  F1  KQV A 701      10.162  45.998  -2.863  1.00  0.00    -0.185 F 
BRANCH  59  62
ATOM     62  P   KQV A 701      10.951  45.349  -0.370  1.00  0.00     0.339 P 
ATOM     63  O1  KQV A 701      10.587  43.847  -0.430  1.00  0.00    -0.635 OA
ATOM     64  O   KQV A 701      12.304  45.490   0.351  1.00  0.00    -0.635 OA
ATOM     65  O2  KQV A 701       9.879  46.190   0.247  1.00  0.00    -0.635 OA
ENDBRANCH  59  62
ENDBRANCH  57  59
ENDBRANCH  46  49
ENDBRANCH   1  45
TORSDOF 13
ENDMDL
MODEL 22
REMARK VINA RESULT:    -5.740      2.616      4.584
REMARK INTER + INTRA:         -12.441
REMARK INTER:                  -9.144
REMARK INTRA:                  -3.297
REMARK UNBOUND:                -2.339
REMARK  13 active torsions:
REMARK  status: ('A' for Active; 'I' for Inactive)
REMARK    1  A    between atoms: C1_1  and  C_13 
REMARK    2  A    between atoms: C5_5  and  C6_6 
REMARK       I    between atoms: C6_6  and  N1_10 
REMARK    3  A    between atoms: C7_7  and  N1_10 
REMARK    4  A    between atoms: C_13  and  P_20 
REMARK       I    between atoms: N6_24  and  C34_25 
REMARK    5  A    between atoms: C9_34  and  C10_35 
REMARK       I    between atoms: C10_35  and  N3_37 
REMARK    6  A    between atoms: N3_37  and  C11_38 
REMARK    7  A    between atoms: C11_38  and  C15_44 
REMARK    8  A    between atoms: C11_38  and  C12_39 
REMARK    9  A    between atoms: C12_39  and  C13_40 
REMARK   10  A    between atoms: C13_40  and  C14_41 
REMARK       I    between atoms: C14_41  and  N4_43 
REMARK       I    between atoms: C15_44  and  N5_46 
REMARK   11  A    between atoms: N5_46  and  C16_47 
REMARK   12  A    between atoms: C16_47  and  C17_54 
REMARK   13  A    between atoms: C16_47  and  C23_48 
ROOT
ATOM      1  C7  KQV A 701      11.892  56.258  -3.000  1.00  0.00     0.195 C 
ATOM      2  C8  KQV A 701      13.202  56.847  -2.409  1.00  0.00     0.245 C 
ATOM      3  N2  KQV A 701      13.848  57.943  -3.167  1.00  0.00    -0.332 N 
ATOM      4  C36 KQV A 701      10.736  57.285  -2.750  1.00  0.00     0.160 C 
ATOM      5  N6  KQV A 701      10.527  58.187  -3.968  1.00  0.00    -0.350 N 
ATOM      6  C34 KQV A 701       9.623  57.937  -4.957  1.00  0.00     0.215 C 
ATOM      7  O6  KQV A 701       8.658  58.670  -5.125  1.00  0.00    -0.274 OA
ATOM      8  C35 KQV A 701       9.860  56.762  -5.859  1.00  0.00     0.117 C 
ATOM      9  C33 KQV A 701      11.305  59.434  -4.001  1.00  0.00     0.128 C 
ATOM     10  C32 KQV A 701      12.580  59.384  -4.818  1.00  0.00     0.045 C 
ATOM     11  C31 KQV A 701      13.605  58.262  -4.592  1.00  0.00     0.089 C 
ATOM     12  O7  KQV A 701      13.675  56.425  -1.367  1.00  0.00    -0.271 OA
ATOM     13  C30 KQV A 701      15.018  58.548  -5.104  1.00  0.00     0.028 C 
ATOM     14  C29 KQV A 701      15.745  59.126  -3.882  1.00  0.00     0.037 C 
ATOM     15  C9  KQV A 701      15.200  58.291  -2.721  1.00  0.00     0.179 C 
ENDROOT
BRANCH  15  16
ATOM     16  C10 KQV A 701      15.204  59.073  -1.411  1.00  0.00     0.241 C 
ATOM     17  O5  KQV A 701      15.992  58.793  -0.509  1.00  0.00    -0.271 OA
ATOM     18  N3  KQV A 701      14.318  60.073  -1.341  1.00  0.00    -0.346 N 
ATOM     19  H   KQV A 701      13.677  60.181  -2.080  1.00  0.00     0.163 HD
BRANCH  18  20
ATOM     20  C11 KQV A 701      14.253  61.009  -0.230  1.00  0.00     0.177 C 
BRANCH  20  21
ATOM     21  C15 KQV A 701      13.359  60.521   0.910  1.00  0.00     0.241 C 
ATOM     22  N5  KQV A 701      13.672  60.942   2.147  1.00  0.00    -0.347 N 
ATOM     23  H   KQV A 701      14.386  61.611   2.252  1.00  0.00     0.163 HD
ATOM     24  O4  KQV A 701      12.417  59.767   0.670  1.00  0.00    -0.271 OA
BRANCH  22  25
ATOM     25  C16 KQV A 701      12.989  60.440   3.347  1.00  0.00     0.151 C 
BRANCH  25  26
ATOM     26  C17 KQV A 701      12.526  61.557   4.274  1.00  0.00    -0.031 A 
ATOM     27  C18 KQV A 701      12.821  62.887   3.995  1.00  0.00     0.009 A 
ATOM     28  C19 KQV A 701      12.464  63.892   4.884  1.00  0.00     0.001 A 
ATOM     29  C20 KQV A 701      11.801  63.580   6.056  1.00  0.00     0.000 A 
ATOM     30  C21 KQV A 701      11.494  62.262   6.339  1.00  0.00     0.001 A 
ATOM     31  C22 KQV A 701      11.852  61.257   5.452  1.00  0.00     0.009 A 
ENDBRANCH  25  26
BRANCH  25  32
ATOM     32  C23 KQV A 701      13.750  59.326   4.058  1.00  0.00    -0.031 A 
ATOM     33  C28 KQV A 701      14.907  59.596   4.783  1.00  0.00     0.009 A 
ATOM     34  C27 KQV A 701      15.636  58.567   5.362  1.00  0.00     0.001 A 
ATOM     35  C26 KQV A 701      15.216  57.256   5.229  1.00  0.00     0.000 A 
ATOM     36  C25 KQV A 701      14.061  56.976   4.524  1.00  0.00     0.001 A 
ATOM     37  C24 KQV A 701      13.331  58.004   3.946  1.00  0.00     0.009 A 
ENDBRANCH  25  32
ENDBRANCH  22  25
ENDBRANCH  20  21
BRANCH  20  38
ATOM     38  C12 KQV A 701      13.805  62.391  -0.712  1.00  0.00     0.044 C 
BRANCH  38  39
ATOM     39  C13 KQV A 701      14.574  63.545  -0.059  1.00  0.00     0.105 C 
BRANCH  39  40
ATOM     40  C14 KQV A 701      13.706  64.655   0.492  1.00  0.00     0.215 C 
ATOM     41  N4  KQV A 701      14.105  65.189   1.636  1.00  0.00    -0.370 N 
ATOM     42  H   KQV A 701      14.918  64.853   2.079  1.00  0.00     0.159 HD
ATOM     43  H   KQV A 701      13.589  65.921   2.044  1.00  0.00     0.159 HD
ATOM     44  O3  KQV A 701      12.697  65.036  -0.106  1.00  0.00    -0.274 OA
ENDBRANCH  39  40
ENDBRANCH  38  39
ENDBRANCH  20  38
ENDBRANCH  18  20
ENDBRANCH  15  16
BRANCH   1  45
ATOM     45  N1  KQV A 701      11.712  54.850  -2.679  1.00  0.00    -0.341 N 
ATOM     46  C6  KQV A 701      11.796  53.833  -3.558  1.00  0.00     0.269 C 
ATOM     47  O8  KQV A 701      11.775  53.987  -4.781  1.00  0.00    -0.266 OA
ATOM     48  H   KQV A 701      11.512  54.623  -1.742  1.00  0.00     0.163 HD
BRANCH  46  49
ATOM     49  C5  KQV A 701      11.929  52.482  -2.961  1.00  0.00     0.102 A 
ATOM     50  N   KQV A 701      10.869  51.653  -2.649  1.00  0.00    -0.351 N 
ATOM     51  C4  KQV A 701      11.368  50.452  -2.173  1.00  0.00     0.043 A 
ATOM     52  H   KQV A 701       9.916  51.880  -2.749  1.00  0.00     0.166 HD
ATOM     53  C3  KQV A 701      12.772  50.533  -2.187  1.00  0.00    -0.006 A 
ATOM     54  C38 KQV A 701      10.706  49.298  -1.752  1.00  0.00     0.031 A 
ATOM     55  C2  KQV A 701      13.508  49.422  -1.779  1.00  0.00     0.027 A 
ATOM     56  C37 KQV A 701      13.105  51.832  -2.687  1.00  0.00     0.049 A 
ATOM     57  C1  KQV A 701      12.874  48.249  -1.377  1.00  0.00     0.028 A 
ATOM     58  C39 KQV A 701      11.476  48.208  -1.357  1.00  0.00     0.016 A 
BRANCH  57  59
ATOM     59  C   KQV A 701      13.795  47.044  -1.087  1.00  0.00     0.380 C 
ATOM     60  F   KQV A 701      13.096  46.045  -0.489  1.00  0.00    -0.185 F 
ATOM     61  F1  KQV A 701      14.685  47.331  -0.111  1.00  0.00    -0.185 F 
BRANCH  59  62
ATOM     62  P   KQV A 701      14.645  46.381  -2.631  1.00  0.00     0.339 P 
ATOM     63  O1  KQV A 701      14.986  44.908  -2.306  1.00  0.00    -0.635 OA
ATOM     64  O   KQV A 701      13.554  46.396  -3.718  1.00  0.00    -0.635 OA
ATOM     65  O2  KQV A 701      15.843  47.194  -3.007  1.00  0.00    -0.635 OA
ENDBRANCH  59  62
ENDBRANCH  57  59
ENDBRANCH  46  49
ENDBRANCH   1  45
TORSDOF 13
ENDMDL
MODEL 23
REMARK VINA RESULT:    -5.630      2.694      5.175
REMARK INTER + INTRA:         -12.247
REMARK INTER:                  -7.961
REMARK INTRA:                  -4.286
REMARK UNBOUND:                -2.339
REMARK  13 active torsions:
REMARK  status: ('A' for Active; 'I' for Inactive)
REMARK    1  A    between atoms: C1_1  and  C_13 
REMARK    2  A    between atoms: C5_5  and  C6_6 
REMARK       I    between atoms: C6_6  and  N1_10 
REMARK    3  A    between atoms: C7_7  and  N1_10 
REMARK    4  A    between atoms: C_13  and  P_20 
REMARK       I    between atoms: N6_24  and  C34_25 
REMARK    5  A    between atoms: C9_34  and  C10_35 
REMARK       I    between atoms: C10_35  and  N3_37 
REMARK    6  A    between atoms: N3_37  and  C11_38 
REMARK    7  A    between atoms: C11_38  and  C15_44 
REMARK    8  A    between atoms: C11_38  and  C12_39 
REMARK    9  A    between atoms: C12_39  and  C13_40 
REMARK   10  A    between atoms: C13_40  and  C14_41 
REMARK       I    between atoms: C14_41  and  N4_43 
REMARK       I    between atoms: C15_44  and  N5_46 
REMARK   11  A    between atoms: N5_46  and  C16_47 
REMARK   12  A    between atoms: C16_47  and  C17_54 
REMARK   13  A    between atoms: C16_47  and  C23_48 
ROOT
ATOM      1  C7  KQV A 701      12.921  54.938  -2.422  1.00  0.00     0.195 C 
ATOM      2  C8  KQV A 701      13.057  55.517  -0.987  1.00  0.00     0.245 C 
ATOM      3  N2  KQV A 701      14.298  56.267  -0.680  1.00  0.00    -0.332 N 
ATOM      4  C36 KQV A 701      12.601  56.119  -3.400  1.00  0.00     0.160 C 
ATOM      5  N6  KQV A 701      13.877  56.649  -4.058  1.00  0.00    -0.350 N 
ATOM      6  C34 KQV A 701      14.342  56.230  -5.269  1.00  0.00     0.215 C 
ATOM      7  O6  KQV A 701      14.368  56.989  -6.228  1.00  0.00    -0.274 OA
ATOM      8  C35 KQV A 701      14.856  54.825  -5.387  1.00  0.00     0.117 C 
ATOM      9  C33 KQV A 701      14.574  57.736  -3.355  1.00  0.00     0.128 C 
ATOM     10  C32 KQV A 701      15.737  57.306  -2.485  1.00  0.00     0.045 C 
ATOM     11  C31 KQV A 701      15.562  56.187  -1.447  1.00  0.00     0.089 C 
ATOM     12  O7  KQV A 701      12.181  55.362  -0.153  1.00  0.00    -0.271 OA
ATOM     13  C30 KQV A 701      16.611  56.149  -0.335  1.00  0.00     0.028 C 
ATOM     14  C29 KQV A 701      15.978  56.968   0.799  1.00  0.00     0.037 C 
ATOM     15  C9  KQV A 701      14.503  56.571   0.738  1.00  0.00     0.179 C 
ENDROOT
BRANCH  15  16
ATOM     16  C10 KQV A 701      13.594  57.691   1.236  1.00  0.00     0.241 C 
ATOM     17  O5  KQV A 701      12.954  57.571   2.280  1.00  0.00    -0.271 OA
ATOM     18  N3  KQV A 701      13.575  58.791   0.474  1.00  0.00    -0.346 N 
ATOM     19  H   KQV A 701      14.061  58.774  -0.382  1.00  0.00     0.163 HD
BRANCH  18  20
ATOM     20  C11 KQV A 701      12.873  60.010   0.844  1.00  0.00     0.177 C 
BRANCH  20  21
ATOM     21  C15 KQV A 701      12.386  60.808  -0.366  1.00  0.00     0.241 C 
ATOM     22  N5  KQV A 701      12.816  60.402  -1.572  1.00  0.00    -0.347 N 
ATOM     23  H   KQV A 701      13.334  59.567  -1.633  1.00  0.00     0.163 HD
ATOM     24  O4  KQV A 701      11.648  61.779  -0.203  1.00  0.00    -0.271 OA
BRANCH  22  25
ATOM     25  C16 KQV A 701      12.543  61.157  -2.803  1.00  0.00     0.151 C 
BRANCH  25  26
ATOM     26  C17 KQV A 701      11.978  60.286  -3.917  1.00  0.00    -0.031 A 
ATOM     27  C18 KQV A 701      10.956  59.377  -3.668  1.00  0.00     0.009 A 
ATOM     28  C19 KQV A 701      10.501  58.532  -4.670  1.00  0.00     0.001 A 
ATOM     29  C20 KQV A 701      11.055  58.592  -5.936  1.00  0.00     0.000 A 
ATOM     30  C21 KQV A 701      12.065  59.498  -6.198  1.00  0.00     0.001 A 
ATOM     31  C22 KQV A 701      12.522  60.342  -5.195  1.00  0.00     0.009 A 
ENDBRANCH  25  26
BRANCH  25  32
ATOM     32  C23 KQV A 701      13.706  62.043  -3.242  1.00  0.00    -0.031 A 
ATOM     33  C28 KQV A 701      15.021  61.600  -3.148  1.00  0.00     0.009 A 
ATOM     34  C27 KQV A 701      16.076  62.439  -3.478  1.00  0.00     0.001 A 
ATOM     35  C26 KQV A 701      15.830  63.729  -3.909  1.00  0.00     0.000 A 
ATOM     36  C25 KQV A 701      14.527  64.176  -4.020  1.00  0.00     0.001 A 
ATOM     37  C24 KQV A 701      13.471  63.338  -3.693  1.00  0.00     0.009 A 
ENDBRANCH  25  32
ENDBRANCH  22  25
ENDBRANCH  20  21
BRANCH  20  38
ATOM     38  C12 KQV A 701      13.744  60.883   1.750  1.00  0.00     0.044 C 
BRANCH  38  39
ATOM     39  C13 KQV A 701      14.886  61.586   1.008  1.00  0.00     0.105 C 
BRANCH  39  40
ATOM     40  C14 KQV A 701      16.189  60.819   0.975  1.00  0.00     0.215 C 
ATOM     41  N4  KQV A 701      16.564  60.365  -0.212  1.00  0.00    -0.370 N 
ATOM     42  H   KQV A 701      16.001  60.529  -1.002  1.00  0.00     0.159 HD
ATOM     43  H   KQV A 701      17.407  59.865  -0.303  1.00  0.00     0.159 HD
ATOM     44  O3  KQV A 701      16.856  60.644   1.997  1.00  0.00    -0.274 OA
ENDBRANCH  39  40
ENDBRANCH  38  39
ENDBRANCH  20  38
ENDBRANCH  18  20
ENDBRANCH  15  16
BRANCH   1  45
ATOM     45  N1  KQV A 701      12.136  53.713  -2.462  1.00  0.00    -0.341 N 
ATOM     46  C6  KQV A 701      12.403  52.641  -3.233  1.00  0.00     0.269 C 
ATOM     47  O8  KQV A 701      13.185  52.665  -4.186  1.00  0.00    -0.266 OA
ATOM     48  H   KQV A 701      11.346  53.663  -1.876  1.00  0.00     0.163 HD
BRANCH  46  49
ATOM     49  C5  KQV A 701      11.694  51.393  -2.860  1.00  0.00     0.102 A 
ATOM     50  N   KQV A 701      10.637  50.849  -3.563  1.00  0.00    -0.351 N 
ATOM     51  C4  KQV A 701      10.271  49.655  -2.965  1.00  0.00     0.043 A 
ATOM     52  H   KQV A 701      10.214  51.246  -4.359  1.00  0.00     0.166 HD
ATOM     53  C3  KQV A 701      11.118  49.448  -1.861  1.00  0.00    -0.006 A 
ATOM     54  C38 KQV A 701       9.283  48.732  -3.311  1.00  0.00     0.031 A 
ATOM     55  C2  KQV A 701      10.964  48.284  -1.111  1.00  0.00     0.027 A 
ATOM     56  C37 KQV A 701      12.011  50.566  -1.812  1.00  0.00     0.049 A 
ATOM     57  C1  KQV A 701      10.004  47.334  -1.449  1.00  0.00     0.028 A 
ATOM     58  C39 KQV A 701       9.164  47.579  -2.540  1.00  0.00     0.016 A 
BRANCH  57  59
ATOM     59  C   KQV A 701      10.028  46.024  -0.632  1.00  0.00     0.380 C 
ATOM     60  F   KQV A 701       9.032  46.022   0.292  1.00  0.00    -0.185 F 
ATOM     61  F1  KQV A 701      11.108  45.971   0.179  1.00  0.00    -0.185 F 
BRANCH  59  62
ATOM     62  P   KQV A 701       9.890  44.485  -1.708  1.00  0.00     0.339 P 
ATOM     63  O1  KQV A 701      10.797  44.761  -2.929  1.00  0.00    -0.635 OA
ATOM     64  O   KQV A 701      10.531  43.362  -0.873  1.00  0.00    -0.635 OA
ATOM     65  O2  KQV A 701       8.472  44.186  -2.084  1.00  0.00    -0.635 OA
ENDBRANCH  59  62
ENDBRANCH  57  59
ENDBRANCH  46  49
ENDBRANCH   1  45
TORSDOF 13
ENDMDL
MODEL 24
REMARK VINA RESULT:    -5.628      5.065     12.785
REMARK INTER + INTRA:         -12.245
REMARK INTER:                  -7.708
REMARK INTRA:                  -4.537
REMARK UNBOUND:                -2.339
REMARK  13 active torsions:
REMARK  status: ('A' for Active; 'I' for Inactive)
REMARK    1  A    between atoms: C1_1  and  C_13 
REMARK    2  A    between atoms: C5_5  and  C6_6 
REMARK       I    between atoms: C6_6  and  N1_10 
REMARK    3  A    between atoms: C7_7  and  N1_10 
REMARK    4  A    between atoms: C_13  and  P_20 
REMARK       I    between atoms: N6_24  and  C34_25 
REMARK    5  A    between atoms: C9_34  and  C10_35 
REMARK       I    between atoms: C10_35  and  N3_37 
REMARK    6  A    between atoms: N3_37  and  C11_38 
REMARK    7  A    between atoms: C11_38  and  C15_44 
REMARK    8  A    between atoms: C11_38  and  C12_39 
REMARK    9  A    between atoms: C12_39  and  C13_40 
REMARK   10  A    between atoms: C13_40  and  C14_41 
REMARK       I    between atoms: C14_41  and  N4_43 
REMARK       I    between atoms: C15_44  and  N5_46 
REMARK   11  A    between atoms: N5_46  and  C16_47 
REMARK   12  A    between atoms: C16_47  and  C17_54 
REMARK   13  A    between atoms: C16_47  and  C23_48 
ROOT
ATOM      1  C7  KQV A 701      13.292  52.390  -3.187  1.00  0.00     0.195 C 
ATOM      2  C8  KQV A 701      12.275  51.418  -2.528  1.00  0.00     0.245 C 
ATOM      3  N2  KQV A 701      11.529  50.512  -3.431  1.00  0.00    -0.332 N 
ATOM      4  C36 KQV A 701      14.554  51.567  -3.613  1.00  0.00     0.160 C 
ATOM      5  N6  KQV A 701      14.465  51.141  -5.080  1.00  0.00    -0.350 N 
ATOM      6  C34 KQV A 701      15.006  51.847  -6.113  1.00  0.00     0.215 C 
ATOM      7  O6  KQV A 701      15.935  51.392  -6.765  1.00  0.00    -0.274 OA
ATOM      8  C35 KQV A 701      14.408  53.180  -6.455  1.00  0.00     0.117 C 
ATOM      9  C33 KQV A 701      13.824  49.846  -5.348  1.00  0.00     0.128 C 
ATOM     10  C32 KQV A 701      12.364  49.913  -5.745  1.00  0.00     0.045 C 
ATOM     11  C31 KQV A 701      11.360  50.702  -4.890  1.00  0.00     0.089 C 
ATOM     12  O7  KQV A 701      12.102  51.402  -1.320  1.00  0.00    -0.271 OA
ATOM     13  C30 KQV A 701       9.889  50.335  -5.094  1.00  0.00     0.028 C 
ATOM     14  C29 KQV A 701       9.616  49.284  -4.010  1.00  0.00     0.037 C 
ATOM     15  C9  KQV A 701      10.409  49.802  -2.809  1.00  0.00     0.179 C 
ENDROOT
BRANCH  15  16
ATOM     16  C10 KQV A 701      10.866  48.666  -1.899  1.00  0.00     0.241 C 
ATOM     17  O5  KQV A 701      10.262  48.405  -0.860  1.00  0.00    -0.271 OA
ATOM     18  N3  KQV A 701      11.934  47.984  -2.330  1.00  0.00    -0.346 N 
ATOM     19  H   KQV A 701      12.399  48.307  -3.136  1.00  0.00     0.163 HD
BRANCH  18  20
ATOM     20  C11 KQV A 701      12.444  46.793  -1.672  1.00  0.00     0.177 C 
BRANCH  20  21
ATOM     21  C15 KQV A 701      13.938  46.878  -1.356  1.00  0.00     0.241 C 
ATOM     22  N5  KQV A 701      14.771  46.999  -2.403  1.00  0.00    -0.347 N 
ATOM     23  H   KQV A 701      14.387  47.125  -3.301  1.00  0.00     0.163 HD
ATOM     24  O4  KQV A 701      14.322  46.820  -0.189  1.00  0.00    -0.271 OA
BRANCH  22  25
ATOM     25  C16 KQV A 701      16.232  46.949  -2.258  1.00  0.00     0.151 C 
BRANCH  25  26
ATOM     26  C17 KQV A 701      16.944  48.019  -3.076  1.00  0.00    -0.031 A 
ATOM     27  C18 KQV A 701      17.052  47.911  -4.458  1.00  0.00     0.009 A 
ATOM     28  C19 KQV A 701      17.770  48.849  -5.187  1.00  0.00     0.001 A 
ATOM     29  C20 KQV A 701      18.378  49.912  -4.545  1.00  0.00     0.000 A 
ATOM     30  C21 KQV A 701      18.269  50.036  -3.173  1.00  0.00     0.001 A 
ATOM     31  C22 KQV A 701      17.554  49.096  -2.443  1.00  0.00     0.009 A 
ENDBRANCH  25  26
BRANCH  25  32
ATOM     32  C23 KQV A 701      16.813  45.550  -2.437  1.00  0.00    -0.031 A 
ATOM     33  C28 KQV A 701      16.153  44.590  -3.197  1.00  0.00     0.009 A 
ATOM     34  C27 KQV A 701      16.649  43.297  -3.291  1.00  0.00     0.001 A 
ATOM     35  C26 KQV A 701      17.813  42.949  -2.631  1.00  0.00     0.000 A 
ATOM     36  C25 KQV A 701      18.485  43.897  -1.884  1.00  0.00     0.001 A 
ATOM     37  C24 KQV A 701      17.991  45.190  -1.791  1.00  0.00     0.009 A 
ENDBRANCH  25  32
ENDBRANCH  22  25
ENDBRANCH  20  21
BRANCH  20  38
ATOM     38  C12 KQV A 701      12.138  45.543  -2.500  1.00  0.00     0.044 C 
BRANCH  38  39
ATOM     39  C13 KQV A 701      10.774  44.918  -2.186  1.00  0.00     0.105 C 
BRANCH  39  40
ATOM     40  C14 KQV A 701      10.462  44.784  -0.712  1.00  0.00     0.215 C 
ATOM     41  N4  KQV A 701       9.557  45.623  -0.232  1.00  0.00    -0.370 N 
ATOM     42  H   KQV A 701       9.139  46.288  -0.825  1.00  0.00     0.159 HD
ATOM     43  H   KQV A 701       9.303  45.582   0.718  1.00  0.00     0.159 HD
ATOM     44  O3  KQV A 701      11.018  43.931  -0.014  1.00  0.00    -0.274 OA
ENDBRANCH  39  40
ENDBRANCH  38  39
ENDBRANCH  20  38
ENDBRANCH  18  20
ENDBRANCH  15  16
BRANCH   1  45
ATOM     45  N1  KQV A 701      13.438  53.637  -2.450  1.00  0.00    -0.341 N 
ATOM     46  C6  KQV A 701      12.582  54.677  -2.501  1.00  0.00     0.269 C 
ATOM     47  O8  KQV A 701      11.719  54.806  -3.371  1.00  0.00    -0.266 OA
ATOM     48  H   KQV A 701      14.225  53.727  -1.866  1.00  0.00     0.163 HD
BRANCH  46  49
ATOM     49  C5  KQV A 701      12.733  55.681  -1.420  1.00  0.00     0.102 A 
ATOM     50  N   KQV A 701      13.296  55.428  -0.185  1.00  0.00    -0.351 N 
ATOM     51  C4  KQV A 701      13.330  56.608   0.540  1.00  0.00     0.043 A 
ATOM     52  H   KQV A 701      13.620  54.553   0.129  1.00  0.00     0.166 HD
ATOM     53  C3  KQV A 701      12.773  57.622  -0.261  1.00  0.00    -0.006 A 
ATOM     54  C38 KQV A 701      13.818  56.873   1.819  1.00  0.00     0.031 A 
ATOM     55  C2  KQV A 701      12.726  58.920   0.243  1.00  0.00     0.027 A 
ATOM     56  C37 KQV A 701      12.398  57.009  -1.499  1.00  0.00     0.049 A 
ATOM     57  C1  KQV A 701      13.229  59.218   1.506  1.00  0.00     0.028 A 
ATOM     58  C39 KQV A 701      13.759  58.184   2.286  1.00  0.00     0.016 A 
BRANCH  57  59
ATOM     59  C   KQV A 701      13.253  60.713   1.893  1.00  0.00     0.380 C 
ATOM     60  F   KQV A 701      13.288  60.853   3.244  1.00  0.00    -0.185 F 
ATOM     61  F1  KQV A 701      12.069  61.307   1.622  1.00  0.00    -0.185 F 
BRANCH  59  62
ATOM     62  P   KQV A 701      14.694  61.648   1.125  1.00  0.00     0.339 P 
ATOM     63  O1  KQV A 701      15.027  62.777   2.128  1.00  0.00    -0.635 OA
ATOM     64  O   KQV A 701      15.861  60.642   1.124  1.00  0.00    -0.635 OA
ATOM     65  O2  KQV A 701      14.370  62.155  -0.245  1.00  0.00    -0.635 OA
ENDBRANCH  59  62
ENDBRANCH  57  59
ENDBRANCH  46  49
ENDBRANCH   1  45
TORSDOF 13
ENDMDL
MODEL 25
REMARK VINA RESULT:    -5.620      3.368      5.188
REMARK INTER + INTRA:         -12.230
REMARK INTER:                  -8.425
REMARK INTRA:                  -3.806
REMARK UNBOUND:                -2.339
REMARK  13 active torsions:
REMARK  status: ('A' for Active; 'I' for Inactive)
REMARK    1  A    between atoms: C1_1  and  C_13 
REMARK    2  A    between atoms: C5_5  and  C6_6 
REMARK       I    between atoms: C6_6  and  N1_10 
REMARK    3  A    between atoms: C7_7  and  N1_10 
REMARK    4  A    between atoms: C_13  and  P_20 
REMARK       I    between atoms: N6_24  and  C34_25 
REMARK    5  A    between atoms: C9_34  and  C10_35 
REMARK       I    between atoms: C10_35  and  N3_37 
REMARK    6  A    between atoms: N3_37  and  C11_38 
REMARK    7  A    between atoms: C11_38  and  C15_44 
REMARK    8  A    between atoms: C11_38  and  C12_39 
REMARK    9  A    between atoms: C12_39  and  C13_40 
REMARK   10  A    between atoms: C13_40  and  C14_41 
REMARK       I    between atoms: C14_41  and  N4_43 
REMARK       I    between atoms: C15_44  and  N5_46 
REMARK   11  A    between atoms: N5_46  and  C16_47 
REMARK   12  A    between atoms: C16_47  and  C17_54 
REMARK   13  A    between atoms: C16_47  and  C23_48 
ROOT
ATOM      1  C7  KQV A 701      13.814  54.847  -1.774  1.00  0.00     0.195 C 
ATOM      2  C8  KQV A 701      15.355  54.835  -1.974  1.00  0.00     0.245 C 
ATOM      3  N2  KQV A 701      15.932  55.909  -2.814  1.00  0.00    -0.332 N 
ATOM      4  C36 KQV A 701      13.458  55.997  -0.772  1.00  0.00     0.160 C 
ATOM      5  N6  KQV A 701      13.072  57.276  -1.517  1.00  0.00    -0.350 N 
ATOM      6  C34 KQV A 701      11.789  57.621  -1.828  1.00  0.00     0.215 C 
ATOM      7  O6  KQV A 701      11.259  58.594  -1.312  1.00  0.00    -0.274 OA
ATOM      8  C35 KQV A 701      11.058  56.797  -2.847  1.00  0.00     0.117 C 
ATOM      9  C33 KQV A 701      14.164  58.209  -1.828  1.00  0.00     0.128 C 
ATOM     10  C32 KQV A 701      14.733  58.101  -3.228  1.00  0.00     0.045 C 
ATOM     11  C31 KQV A 701      15.181  56.739  -3.783  1.00  0.00     0.089 C 
ATOM     12  O7  KQV A 701      16.056  53.979  -1.460  1.00  0.00    -0.271 OA
ATOM     13  C30 KQV A 701      16.142  56.796  -4.971  1.00  0.00     0.028 C 
ATOM     14  C29 KQV A 701      17.533  56.717  -4.327  1.00  0.00     0.037 C 
ATOM     15  C9  KQV A 701      17.336  55.718  -3.187  1.00  0.00     0.179 C 
ENDROOT
BRANCH  15  16
ATOM     16  C10 KQV A 701      18.293  55.984  -2.029  1.00  0.00     0.241 C 
ATOM     17  O5  KQV A 701      19.346  55.358  -1.921  1.00  0.00    -0.271 OA
ATOM     18  N3  KQV A 701      17.909  56.946  -1.181  1.00  0.00    -0.346 N 
ATOM     19  H   KQV A 701      17.018  57.346  -1.302  1.00  0.00     0.163 HD
BRANCH  18  20
ATOM     20  C11 KQV A 701      18.740  57.432  -0.091  1.00  0.00     0.177 C 
BRANCH  20  21
ATOM     21  C15 KQV A 701      18.490  56.692   1.224  1.00  0.00     0.241 C 
ATOM     22  N5  KQV A 701      17.750  57.330   2.145  1.00  0.00    -0.347 N 
ATOM     23  H   KQV A 701      17.325  58.184   1.902  1.00  0.00     0.163 HD
ATOM     24  O4  KQV A 701      18.973  55.575   1.400  1.00  0.00    -0.271 OA
BRANCH  22  25
ATOM     25  C16 KQV A 701      17.551  56.801   3.502  1.00  0.00     0.151 C 
BRANCH  25  26
ATOM     26  C17 KQV A 701      16.124  56.326   3.747  1.00  0.00    -0.031 A 
ATOM     27  C18 KQV A 701      15.867  55.185   4.499  1.00  0.00     0.009 A 
ATOM     28  C19 KQV A 701      14.570  54.716   4.651  1.00  0.00     0.001 A 
ATOM     29  C20 KQV A 701      13.514  55.386   4.063  1.00  0.00     0.000 A 
ATOM     30  C21 KQV A 701      13.756  56.527   3.321  1.00  0.00     0.001 A 
ATOM     31  C22 KQV A 701      15.053  56.996   3.166  1.00  0.00     0.009 A 
ENDBRANCH  25  26
BRANCH  25  32
ATOM     32  C23 KQV A 701      18.092  57.715   4.596  1.00  0.00    -0.031 A 
ATOM     33  C28 KQV A 701      18.535  57.198   5.810  1.00  0.00     0.009 A 
ATOM     34  C27 KQV A 701      18.953  58.043   6.828  1.00  0.00     0.001 A 
ATOM     35  C26 KQV A 701      18.939  59.413   6.646  1.00  0.00     0.000 A 
ATOM     36  C25 KQV A 701      18.514  59.938   5.440  1.00  0.00     0.001 A 
ATOM     37  C24 KQV A 701      18.098  59.095   4.421  1.00  0.00     0.009 A 
ENDBRANCH  25  32
ENDBRANCH  22  25
ENDBRANCH  20  21
BRANCH  20  38
ATOM     38  C12 KQV A 701      18.560  58.940   0.096  1.00  0.00     0.044 C 
BRANCH  38  39
ATOM     39  C13 KQV A 701      17.290  59.491  -0.562  1.00  0.00     0.105 C 
BRANCH  39  40
ATOM     40  C14 KQV A 701      17.529  60.360  -1.776  1.00  0.00     0.215 C 
ATOM     41  N4  KQV A 701      17.222  61.641  -1.643  1.00  0.00    -0.370 N 
ATOM     42  H   KQV A 701      16.854  61.973  -0.792  1.00  0.00     0.159 HD
ATOM     43  H   KQV A 701      17.362  62.262  -2.394  1.00  0.00     0.159 HD
ATOM     44  O3  KQV A 701      17.994  59.891  -2.819  1.00  0.00    -0.274 OA
ENDBRANCH  39  40
ENDBRANCH  38  39
ENDBRANCH  20  38
ENDBRANCH  18  20
ENDBRANCH  15  16
BRANCH   1  45
ATOM     45  N1  KQV A 701      13.260  53.513  -1.595  1.00  0.00    -0.341 N 
ATOM     46  C6  KQV A 701      12.517  52.850  -2.503  1.00  0.00     0.269 C 
ATOM     47  O8  KQV A 701      11.998  53.389  -3.483  1.00  0.00    -0.266 OA
ATOM     48  H   KQV A 701      13.442  53.059  -0.741  1.00  0.00     0.163 HD
BRANCH  46  49
ATOM     49  C5  KQV A 701      12.360  51.396  -2.260  1.00  0.00     0.102 A 
ATOM     50  N   KQV A 701      13.405  50.511  -2.085  1.00  0.00    -0.351 N 
ATOM     51  C4  KQV A 701      12.886  49.254  -1.816  1.00  0.00     0.043 A 
ATOM     52  H   KQV A 701      14.362  50.735  -2.142  1.00  0.00     0.166 HD
ATOM     53  C3  KQV A 701      11.483  49.358  -1.825  1.00  0.00    -0.006 A 
ATOM     54  C38 KQV A 701      13.528  48.046  -1.548  1.00  0.00     0.031 A 
ATOM     55  C2  KQV A 701      10.729  48.220  -1.545  1.00  0.00     0.027 A 
ATOM     56  C37 KQV A 701      11.173  50.725  -2.113  1.00  0.00     0.049 A 
ATOM     57  C1  KQV A 701      11.344  47.006  -1.249  1.00  0.00     0.028 A 
ATOM     58  C39 KQV A 701      12.741  46.932  -1.268  1.00  0.00     0.016 A 
BRANCH  57  59
ATOM     59  C   KQV A 701      10.407  45.858  -0.815  1.00  0.00     0.380 C 
ATOM     60  F   KQV A 701       9.726  46.199   0.309  1.00  0.00    -0.185 F 
ATOM     61  F1  KQV A 701      11.111  44.799  -0.356  1.00  0.00    -0.185 F 
BRANCH  59  62
ATOM     62  P   KQV A 701       9.190  45.355  -2.160  1.00  0.00     0.339 P 
ATOM     63  O1  KQV A 701      10.016  45.330  -3.467  1.00  0.00    -0.635 OA
ATOM     64  O   KQV A 701       8.793  43.908  -1.811  1.00  0.00    -0.635 OA
ATOM     65  O2  KQV A 701       8.012  46.275  -2.226  1.00  0.00    -0.635 OA
ENDBRANCH  59  62
ENDBRANCH  57  59
ENDBRANCH  46  49
ENDBRANCH   1  45
TORSDOF 13
ENDMDL
MODEL 26
REMARK VINA RESULT:    -5.590      3.404      4.931
REMARK INTER + INTRA:         -12.177
REMARK INTER:                  -7.365
REMARK INTRA:                  -4.811
REMARK UNBOUND:                -2.339
REMARK  13 active torsions:
REMARK  status: ('A' for Active; 'I' for Inactive)
REMARK    1  A    between atoms: C1_1  and  C_13 
REMARK    2  A    between atoms: C5_5  and  C6_6 
REMARK       I    between atoms: C6_6  and  N1_10 
REMARK    3  A    between atoms: C7_7  and  N1_10 
REMARK    4  A    between atoms: C_13  and  P_20 
REMARK       I    between atoms: N6_24  and  C34_25 
REMARK    5  A    between atoms: C9_34  and  C10_35 
REMARK       I    between atoms: C10_35  and  N3_37 
REMARK    6  A    between atoms: N3_37  and  C11_38 
REMARK    7  A    between atoms: C11_38  and  C15_44 
REMARK    8  A    between atoms: C11_38  and  C12_39 
REMARK    9  A    between atoms: C12_39  and  C13_40 
REMARK   10  A    between atoms: C13_40  and  C14_41 
REMARK       I    between atoms: C14_41  and  N4_43 
REMARK       I    between atoms: C15_44  and  N5_46 
REMARK   11  A    between atoms: N5_46  and  C16_47 
REMARK   12  A    between atoms: C16_47  and  C17_54 
REMARK   13  A    between atoms: C16_47  and  C23_48 
ROOT
ATOM      1  C7  KQV A 701      14.466  54.850  -3.459  1.00  0.00     0.195 C 
ATOM      2  C8  KQV A 701      15.287  54.962  -2.144  1.00  0.00     0.245 C 
ATOM      3  N2  KQV A 701      16.645  55.545  -2.248  1.00  0.00    -0.332 N 
ATOM      4  C36 KQV A 701      13.962  56.281  -3.847  1.00  0.00     0.160 C 
ATOM      5  N6  KQV A 701      14.909  56.945  -4.848  1.00  0.00    -0.350 N 
ATOM      6  C34 KQV A 701      14.745  56.899  -6.201  1.00  0.00     0.215 C 
ATOM      7  O6  KQV A 701      14.489  57.911  -6.837  1.00  0.00    -0.274 OA
ATOM      8  C35 KQV A 701      14.925  55.580  -6.895  1.00  0.00     0.117 C 
ATOM      9  C33 KQV A 701      16.004  57.746  -4.282  1.00  0.00     0.128 C 
ATOM     10  C32 KQV A 701      17.338  57.037  -4.173  1.00  0.00     0.045 C 
ATOM     11  C31 KQV A 701      17.436  55.661  -3.494  1.00  0.00     0.089 C 
ATOM     12  O7  KQV A 701      14.831  54.589  -1.076  1.00  0.00    -0.271 OA
ATOM     13  C30 KQV A 701      18.835  55.256  -3.026  1.00  0.00     0.028 C 
ATOM     14  C29 KQV A 701      18.882  55.711  -1.561  1.00  0.00     0.037 C 
ATOM     15  C9  KQV A 701      17.475  55.398  -1.050  1.00  0.00     0.179 C 
ENDROOT
BRANCH  15  16
ATOM     16  C10 KQV A 701      17.057  56.343   0.074  1.00  0.00     0.241 C 
ATOM     17  O5  KQV A 701      16.758  55.911   1.185  1.00  0.00    -0.271 OA
ATOM     18  N3  KQV A 701      17.069  57.644  -0.241  1.00  0.00    -0.346 N 
ATOM     19  H   KQV A 701      17.252  57.896  -1.175  1.00  0.00     0.163 HD
BRANCH  18  20
ATOM     20  C11 KQV A 701      16.826  58.703   0.724  1.00  0.00     0.177 C 
BRANCH  20  21
ATOM     21  C15 KQV A 701      15.384  59.213   0.699  1.00  0.00     0.241 C 
ATOM     22  N5  KQV A 701      14.652  58.904  -0.383  1.00  0.00    -0.347 N 
ATOM     23  H   KQV A 701      15.033  58.292  -1.053  1.00  0.00     0.163 HD
ATOM     24  O4  KQV A 701      14.955  59.884   1.637  1.00  0.00    -0.271 OA
BRANCH  22  25
ATOM     25  C16 KQV A 701      13.303  59.445  -0.604  1.00  0.00     0.151 C 
BRANCH  25  26
ATOM     26  C17 KQV A 701      12.314  58.390  -1.083  1.00  0.00    -0.031 A 
ATOM     27  C18 KQV A 701      12.334  57.101  -0.562  1.00  0.00     0.009 A 
ATOM     28  C19 KQV A 701      11.483  56.124  -1.060  1.00  0.00     0.001 A 
ATOM     29  C20 KQV A 701      10.595  56.427  -2.076  1.00  0.00     0.000 A 
ATOM     30  C21 KQV A 701      10.560  57.707  -2.595  1.00  0.00     0.001 A 
ATOM     31  C22 KQV A 701      11.413  58.684  -2.100  1.00  0.00     0.009 A 
ENDBRANCH  25  26
BRANCH  25  32
ATOM     32  C23 KQV A 701      13.291  60.724  -1.436  1.00  0.00    -0.031 A 
ATOM     33  C28 KQV A 701      13.962  60.795  -2.653  1.00  0.00     0.009 A 
ATOM     34  C27 KQV A 701      14.010  61.985  -3.366  1.00  0.00     0.001 A 
ATOM     35  C26 KQV A 701      13.384  63.116  -2.876  1.00  0.00     0.000 A 
ATOM     36  C25 KQV A 701      12.702  63.054  -1.675  1.00  0.00     0.001 A 
ATOM     37  C24 KQV A 701      12.652  61.865  -0.962  1.00  0.00     0.009 A 
ENDBRANCH  25  32
ENDBRANCH  22  25
ENDBRANCH  20  21
BRANCH  20  38
ATOM     38  C12 KQV A 701      17.810  59.858   0.520  1.00  0.00     0.044 C 
BRANCH  38  39
ATOM     39  C13 KQV A 701      17.487  60.728  -0.700  1.00  0.00     0.105 C 
BRANCH  39  40
ATOM     40  C14 KQV A 701      18.094  60.250  -1.999  1.00  0.00     0.215 C 
ATOM     41  N4  KQV A 701      17.902  61.031  -3.051  1.00  0.00    -0.370 N 
ATOM     42  H   KQV A 701      17.383  61.862  -2.959  1.00  0.00     0.159 HD
ATOM     43  H   KQV A 701      18.280  60.782  -3.926  1.00  0.00     0.159 HD
ATOM     44  O3  KQV A 701      18.738  59.199  -2.058  1.00  0.00    -0.274 OA
ENDBRANCH  39  40
ENDBRANCH  38  39
ENDBRANCH  20  38
ENDBRANCH  18  20
ENDBRANCH  15  16
BRANCH   1  45
ATOM     45  N1  KQV A 701      13.549  53.719  -3.454  1.00  0.00    -0.341 N 
ATOM     46  C6  KQV A 701      13.884  52.443  -3.727  1.00  0.00     0.269 C 
ATOM     47  O8  KQV A 701      14.944  52.118  -4.268  1.00  0.00    -0.266 OA
ATOM     48  H   KQV A 701      12.607  53.902  -3.232  1.00  0.00     0.163 HD
BRANCH  46  49
ATOM     49  C5  KQV A 701      12.888  51.421  -3.324  1.00  0.00     0.102 A 
ATOM     50  N   KQV A 701      11.835  50.997  -4.111  1.00  0.00    -0.351 N 
ATOM     51  C4  KQV A 701      11.155  49.992  -3.442  1.00  0.00     0.043 A 
ATOM     52  H   KQV A 701      11.606  51.350  -5.001  1.00  0.00     0.166 HD
ATOM     53  C3  KQV A 701      11.798  49.786  -2.208  1.00  0.00    -0.006 A 
ATOM     54  C38 KQV A 701      10.046  49.238  -3.824  1.00  0.00     0.031 A 
ATOM     55  C2  KQV A 701      11.311  48.791  -1.361  1.00  0.00     0.027 A 
ATOM     56  C37 KQV A 701      12.892  50.706  -2.154  1.00  0.00     0.049 A 
ATOM     57  C1  KQV A 701      10.222  48.006  -1.728  1.00  0.00     0.028 A 
ATOM     58  C39 KQV A 701       9.593  48.250  -2.954  1.00  0.00     0.016 A 
BRANCH  57  59
ATOM     59  C   KQV A 701       9.868  46.845  -0.773  1.00  0.00     0.380 C 
ATOM     60  F   KQV A 701       8.609  46.396  -1.017  1.00  0.00    -0.185 F 
ATOM     61  F1  KQV A 701       9.724  47.283   0.498  1.00  0.00    -0.185 F 
BRANCH  59  62
ATOM     62  P   KQV A 701      11.081  45.409  -0.881  1.00  0.00     0.339 P 
ATOM     63  O1  KQV A 701      11.322  45.195  -2.393  1.00  0.00    -0.635 OA
ATOM     64  O   KQV A 701      12.382  45.945  -0.254  1.00  0.00    -0.635 OA
ATOM     65  O2  KQV A 701      10.569  44.187  -0.188  1.00  0.00    -0.635 OA
ENDBRANCH  59  62
ENDBRANCH  57  59
ENDBRANCH  46  49
ENDBRANCH   1  45
TORSDOF 13
ENDMDL
MODEL 27
REMARK VINA RESULT:    -5.573      2.796      5.136
REMARK INTER + INTRA:         -12.147
REMARK INTER:                  -8.826
REMARK INTRA:                  -3.321
REMARK UNBOUND:                -2.339
REMARK  13 active torsions:
REMARK  status: ('A' for Active; 'I' for Inactive)
REMARK    1  A    between atoms: C1_1  and  C_13 
REMARK    2  A    between atoms: C5_5  and  C6_6 
REMARK       I    between atoms: C6_6  and  N1_10 
REMARK    3  A    between atoms: C7_7  and  N1_10 
REMARK    4  A    between atoms: C_13  and  P_20 
REMARK       I    between atoms: N6_24  and  C34_25 
REMARK    5  A    between atoms: C9_34  and  C10_35 
REMARK       I    between atoms: C10_35  and  N3_37 
REMARK    6  A    between atoms: N3_37  and  C11_38 
REMARK    7  A    between atoms: C11_38  and  C15_44 
REMARK    8  A    between atoms: C11_38  and  C12_39 
REMARK    9  A    between atoms: C12_39  and  C13_40 
REMARK   10  A    between atoms: C13_40  and  C14_41 
REMARK       I    between atoms: C14_41  and  N4_43 
REMARK       I    between atoms: C15_44  and  N5_46 
REMARK   11  A    between atoms: N5_46  and  C16_47 
REMARK   12  A    between atoms: C16_47  and  C17_54 
REMARK   13  A    between atoms: C16_47  and  C23_48 
ROOT
ATOM      1  C7  KQV A 701      12.586  56.721  -3.521  1.00  0.00     0.195 C 
ATOM      2  C8  KQV A 701      13.780  57.628  -3.115  1.00  0.00     0.245 C 
ATOM      3  N2  KQV A 701      13.987  58.862  -3.908  1.00  0.00    -0.332 N 
ATOM      4  C36 KQV A 701      11.263  57.406  -3.038  1.00  0.00     0.160 C 
ATOM      5  N6  KQV A 701      10.630  58.232  -4.160  1.00  0.00    -0.350 N 
ATOM      6  C34 KQV A 701       9.668  57.762  -5.005  1.00  0.00     0.215 C 
ATOM      7  O6  KQV A 701       8.534  58.217  -4.980  1.00  0.00    -0.274 OA
ATOM      8  C35 KQV A 701      10.048  56.698  -5.993  1.00  0.00     0.117 C 
ATOM      9  C33 KQV A 701      11.043  59.640  -4.250  1.00  0.00     0.128 C 
ATOM     10  C32 KQV A 701      12.133  59.933  -5.260  1.00  0.00     0.045 C 
ATOM     11  C31 KQV A 701      13.436  59.118  -5.258  1.00  0.00     0.089 C 
ATOM     12  O7  KQV A 701      14.512  57.336  -2.184  1.00  0.00    -0.271 OA
ATOM     13  C30 KQV A 701      14.622  59.769  -5.971  1.00  0.00     0.028 C 
ATOM     14  C29 KQV A 701      15.368  60.507  -4.851  1.00  0.00     0.037 C 
ATOM     15  C9  KQV A 701      15.258  59.549  -3.664  1.00  0.00     0.179 C 
ENDROOT
BRANCH  15  16
ATOM     16  C10 KQV A 701      15.278  60.293  -2.332  1.00  0.00     0.241 C 
ATOM     17  O5  KQV A 701      16.266  60.254  -1.600  1.00  0.00    -0.271 OA
ATOM     18  N3  KQV A 701      14.171  60.989  -2.051  1.00  0.00    -0.346 N 
ATOM     19  H   KQV A 701      13.401  60.906  -2.658  1.00  0.00     0.163 HD
BRANCH  18  20
ATOM     20  C11 KQV A 701      14.045  61.861  -0.894  1.00  0.00     0.177 C 
BRANCH  20  21
ATOM     21  C15 KQV A 701      13.270  61.218   0.257  1.00  0.00     0.241 C 
ATOM     22  N5  KQV A 701      13.599  61.606   1.499  1.00  0.00    -0.347 N 
ATOM     23  H   KQV A 701      14.241  62.344   1.610  1.00  0.00     0.163 HD
ATOM     24  O4  KQV A 701      12.404  60.377   0.018  1.00  0.00    -0.271 OA
BRANCH  22  25
ATOM     25  C16 KQV A 701      13.038  60.970   2.699  1.00  0.00     0.151 C 
BRANCH  25  26
ATOM     26  C17 KQV A 701      12.690  61.973   3.792  1.00  0.00    -0.031 A 
ATOM     27  C18 KQV A 701      11.982  61.583   4.924  1.00  0.00     0.009 A 
ATOM     28  C19 KQV A 701      11.601  62.518   5.876  1.00  0.00     0.001 A 
ATOM     29  C20 KQV A 701      11.931  63.851   5.714  1.00  0.00     0.000 A 
ATOM     30  C21 KQV A 701      12.643  64.249   4.597  1.00  0.00     0.001 A 
ATOM     31  C22 KQV A 701      13.022  63.315   3.643  1.00  0.00     0.009 A 
ENDBRANCH  25  26
BRANCH  25  32
ATOM     32  C23 KQV A 701      13.854  59.779   3.194  1.00  0.00    -0.031 A 
ATOM     33  C28 KQV A 701      13.306  58.501   3.236  1.00  0.00     0.009 A 
ATOM     34  C27 KQV A 701      14.030  57.439   3.760  1.00  0.00     0.001 A 
ATOM     35  C26 KQV A 701      15.309  57.638   4.242  1.00  0.00     0.000 A 
ATOM     36  C25 KQV A 701      15.869  58.900   4.193  1.00  0.00     0.001 A 
ATOM     37  C24 KQV A 701      15.149  59.963   3.669  1.00  0.00     0.009 A 
ENDBRANCH  25  32
ENDBRANCH  22  25
ENDBRANCH  20  21
BRANCH  20  38
ATOM     38  C12 KQV A 701      13.412  63.197  -1.290  1.00  0.00     0.044 C 
BRANCH  38  39
ATOM     39  C13 KQV A 701      12.500  63.102  -2.518  1.00  0.00     0.105 C 
BRANCH  39  40
ATOM     40  C14 KQV A 701      13.071  63.706  -3.781  1.00  0.00     0.215 C 
ATOM     41  N4  KQV A 701      14.363  63.992  -3.754  1.00  0.00    -0.370 N 
ATOM     42  H   KQV A 701      14.890  63.817  -2.941  1.00  0.00     0.159 HD
ATOM     43  H   KQV A 701      14.799  64.379  -4.548  1.00  0.00     0.159 HD
ATOM     44  O3  KQV A 701      12.365  63.904  -4.773  1.00  0.00    -0.274 OA
ENDBRANCH  39  40
ENDBRANCH  38  39
ENDBRANCH  20  38
ENDBRANCH  18  20
ENDBRANCH  15  16
BRANCH   1  45
ATOM     45  N1  KQV A 701      12.831  55.313  -3.249  1.00  0.00    -0.341 N 
ATOM     46  C6  KQV A 701      12.526  54.677  -2.101  1.00  0.00     0.269 C 
ATOM     47  O8  KQV A 701      12.245  55.260  -1.052  1.00  0.00    -0.266 OA
ATOM     48  H   KQV A 701      13.254  54.781  -3.962  1.00  0.00     0.163 HD
BRANCH  46  49
ATOM     49  C5  KQV A 701      12.537  53.195  -2.170  1.00  0.00     0.102 A 
ATOM     50  N   KQV A 701      11.407  52.401  -2.192  1.00  0.00    -0.351 N 
ATOM     51  C4  KQV A 701      11.795  51.078  -2.325  1.00  0.00     0.043 A 
ATOM     52  H   KQV A 701      10.479  52.723  -2.125  1.00  0.00     0.166 HD
ATOM     53  C3  KQV A 701      13.199  51.045  -2.386  1.00  0.00    -0.006 A 
ATOM     54  C38 KQV A 701      11.031  49.914  -2.416  1.00  0.00     0.031 A 
ATOM     55  C2  KQV A 701      13.830  49.813  -2.554  1.00  0.00     0.027 A 
ATOM     56  C37 KQV A 701      13.648  52.400  -2.281  1.00  0.00     0.049 A 
ATOM     57  C1  KQV A 701      13.093  48.639  -2.673  1.00  0.00     0.028 A 
ATOM     58  C39 KQV A 701      11.698  48.704  -2.589  1.00  0.00     0.016 A 
BRANCH  57  59
ATOM     59  C   KQV A 701      13.897  47.361  -2.999  1.00  0.00     0.380 C 
ATOM     60  F   KQV A 701      14.886  47.637  -3.889  1.00  0.00    -0.185 F 
ATOM     61  F1  KQV A 701      13.159  46.490  -3.723  1.00  0.00    -0.185 F 
BRANCH  59  62
ATOM     62  P   KQV A 701      14.635  46.547  -1.471  1.00  0.00     0.339 P 
ATOM     63  O1  KQV A 701      13.427  46.223  -0.561  1.00  0.00    -0.635 OA
ATOM     64  O   KQV A 701      15.228  45.220  -1.979  1.00  0.00    -0.635 OA
ATOM     65  O2  KQV A 701      15.655  47.417  -0.807  1.00  0.00    -0.635 OA
ENDBRANCH  59  62
ENDBRANCH  57  59
ENDBRANCH  46  49
ENDBRANCH   1  45
TORSDOF 13
ENDMDL
MODEL 28
REMARK VINA RESULT:    -5.546      2.307      3.950
REMARK INTER + INTRA:         -12.100
REMARK INTER:                  -8.482
REMARK INTRA:                  -3.617
REMARK UNBOUND:                -2.339
REMARK  13 active torsions:
REMARK  status: ('A' for Active; 'I' for Inactive)
REMARK    1  A    between atoms: C1_1  and  C_13 
REMARK    2  A    between atoms: C5_5  and  C6_6 
REMARK       I    between atoms: C6_6  and  N1_10 
REMARK    3  A    between atoms: C7_7  and  N1_10 
REMARK    4  A    between atoms: C_13  and  P_20 
REMARK       I    between atoms: N6_24  and  C34_25 
REMARK    5  A    between atoms: C9_34  and  C10_35 
REMARK       I    between atoms: C10_35  and  N3_37 
REMARK    6  A    between atoms: N3_37  and  C11_38 
REMARK    7  A    between atoms: C11_38  and  C15_44 
REMARK    8  A    between atoms: C11_38  and  C12_39 
REMARK    9  A    between atoms: C12_39  and  C13_40 
REMARK   10  A    between atoms: C13_40  and  C14_41 
REMARK       I    between atoms: C14_41  and  N4_43 
REMARK       I    between atoms: C15_44  and  N5_46 
REMARK   11  A    between atoms: N5_46  and  C16_47 
REMARK   12  A    between atoms: C16_47  and  C17_54 
REMARK   13  A    between atoms: C16_47  and  C23_48 
ROOT
ATOM      1  C7  KQV A 701      13.662  54.644  -3.360  1.00  0.00     0.195 C 
ATOM      2  C8  KQV A 701      14.298  54.998  -1.988  1.00  0.00     0.245 C 
ATOM      3  N2  KQV A 701      15.628  55.651  -2.012  1.00  0.00    -0.332 N 
ATOM      4  C36 KQV A 701      13.142  55.967  -4.017  1.00  0.00     0.160 C 
ATOM      5  N6  KQV A 701      14.177  56.545  -4.984  1.00  0.00    -0.350 N 
ATOM      6  C34 KQV A 701      14.193  56.295  -6.324  1.00  0.00     0.215 C 
ATOM      7  O6  KQV A 701      13.972  57.186  -7.132  1.00  0.00    -0.274 OA
ATOM      8  C35 KQV A 701      14.527  54.906  -6.785  1.00  0.00     0.117 C 
ATOM      9  C33 KQV A 701      15.148  57.490  -4.416  1.00  0.00     0.128 C 
ATOM     10  C32 KQV A 701      16.491  56.897  -4.041  1.00  0.00     0.045 C 
ATOM     11  C31 KQV A 701      16.568  55.642  -3.156  1.00  0.00     0.089 C 
ATOM     12  O7  KQV A 701      13.727  54.752  -0.939  1.00  0.00    -0.271 OA
ATOM     13  C30 KQV A 701      17.912  55.404  -2.466  1.00  0.00     0.028 C 
ATOM     14  C29 KQV A 701      17.745  56.067  -1.092  1.00  0.00     0.037 C 
ATOM     15  C9  KQV A 701      16.301  55.735  -0.714  1.00  0.00     0.179 C 
ENDROOT
BRANCH  15  16
ATOM     16  C10 KQV A 701      15.695  56.799   0.196  1.00  0.00     0.241 C 
ATOM     17  O5  KQV A 701      16.017  57.981   0.091  1.00  0.00    -0.271 OA
ATOM     18  N3  KQV A 701      14.791  56.350   1.075  1.00  0.00    -0.346 N 
ATOM     19  H   KQV A 701      14.646  55.378   1.140  1.00  0.00     0.163 HD
BRANCH  18  20
ATOM     20  C11 KQV A 701      14.011  57.222   1.938  1.00  0.00     0.177 C 
BRANCH  20  21
ATOM     21  C15 KQV A 701      13.168  58.233   1.160  1.00  0.00     0.241 C 
ATOM     22  N5  KQV A 701      13.707  59.447   0.965  1.00  0.00    -0.347 N 
ATOM     23  H   KQV A 701      14.640  59.600   1.236  1.00  0.00     0.163 HD
ATOM     24  O4  KQV A 701      12.047  57.918   0.762  1.00  0.00    -0.271 OA
BRANCH  22  25
ATOM     25  C16 KQV A 701      12.955  60.556   0.360  1.00  0.00     0.151 C 
BRANCH  25  26
ATOM     26  C17 KQV A 701      13.256  60.734  -1.123  1.00  0.00    -0.031 A 
ATOM     27  C18 KQV A 701      14.554  60.956  -1.569  1.00  0.00     0.009 A 
ATOM     28  C19 KQV A 701      14.809  61.196  -2.912  1.00  0.00     0.001 A 
ATOM     29  C20 KQV A 701      13.771  61.207  -3.826  1.00  0.00     0.000 A 
ATOM     30  C21 KQV A 701      12.478  60.978  -3.395  1.00  0.00     0.001 A 
ATOM     31  C22 KQV A 701      12.222  60.741  -2.052  1.00  0.00     0.009 A 
ENDBRANCH  25  26
BRANCH  25  32
ATOM     32  C23 KQV A 701      13.030  61.850   1.164  1.00  0.00    -0.031 A 
ATOM     33  C28 KQV A 701      13.013  63.090   0.532  1.00  0.00     0.009 A 
ATOM     34  C27 KQV A 701      13.160  64.259   1.265  1.00  0.00     0.001 A 
ATOM     35  C26 KQV A 701      13.321  64.206   2.637  1.00  0.00     0.000 A 
ATOM     36  C25 KQV A 701      13.326  62.981   3.277  1.00  0.00     0.001 A 
ATOM     37  C24 KQV A 701      13.178  61.812   2.547  1.00  0.00     0.009 A 
ENDBRANCH  25  32
ENDBRANCH  22  25
ENDBRANCH  20  21
BRANCH  20  38
ATOM     38  C12 KQV A 701      14.916  57.936   2.945  1.00  0.00     0.044 C 
BRANCH  38  39
ATOM     39  C13 KQV A 701      14.520  57.690   4.405  1.00  0.00     0.105 C 
BRANCH  39  40
ATOM     40  C14 KQV A 701      13.700  58.793   5.036  1.00  0.00     0.215 C 
ATOM     41  N4  KQV A 701      14.384  59.737   5.665  1.00  0.00    -0.370 N 
ATOM     42  H   KQV A 701      15.367  59.687   5.707  1.00  0.00     0.159 HD
ATOM     43  H   KQV A 701      13.911  60.489   6.089  1.00  0.00     0.159 HD
ATOM     44  O3  KQV A 701      12.469  58.806   4.951  1.00  0.00    -0.274 OA
ENDBRANCH  39  40
ENDBRANCH  38  39
ENDBRANCH  20  38
ENDBRANCH  18  20
ENDBRANCH  15  16
BRANCH   1  45
ATOM     45  N1  KQV A 701      12.810  53.465  -3.296  1.00  0.00    -0.341 N 
ATOM     46  C6  KQV A 701      13.180  52.216  -3.639  1.00  0.00     0.269 C 
ATOM     47  O8  KQV A 701      14.194  51.962  -4.293  1.00  0.00    -0.266 OA
ATOM     48  H   KQV A 701      11.887  53.592  -2.976  1.00  0.00     0.163 HD
BRANCH  46  49
ATOM     49  C5  KQV A 701      12.284  51.132  -3.169  1.00  0.00     0.102 A 
ATOM     50  N   KQV A 701      11.208  50.638  -3.880  1.00  0.00    -0.351 N 
ATOM     51  C4  KQV A 701      10.644  49.594  -3.166  1.00  0.00     0.043 A 
ATOM     52  H   KQV A 701      10.894  50.974  -4.751  1.00  0.00     0.166 HD
ATOM     53  C3  KQV A 701      11.384  49.432  -1.981  1.00  0.00    -0.006 A 
ATOM     54  C38 KQV A 701       9.562  48.767  -3.470  1.00  0.00     0.031 A 
ATOM     55  C2  KQV A 701      11.025  48.410  -1.104  1.00  0.00     0.027 A 
ATOM     56  C37 KQV A 701      12.417  50.423  -2.003  1.00  0.00     0.049 A 
ATOM     57  C1  KQV A 701       9.966  47.555  -1.394  1.00  0.00     0.028 A 
ATOM     58  C39 KQV A 701       9.237  47.754  -2.572  1.00  0.00     0.016 A 
BRANCH  57  59
ATOM     59  C   KQV A 701       9.757  46.376  -0.419  1.00  0.00     0.380 C 
ATOM     60  F   KQV A 701       8.513  46.423   0.124  1.00  0.00    -0.185 F 
ATOM     61  F1  KQV A 701      10.509  46.523   0.695  1.00  0.00    -0.185 F 
BRANCH  59  62
ATOM     62  P   KQV A 701      10.029  44.698  -1.227  1.00  0.00     0.339 P 
ATOM     63  O1  KQV A 701      11.021  44.960  -2.384  1.00  0.00    -0.635 OA
ATOM     64  O   KQV A 701      10.748  43.857  -0.155  1.00  0.00    -0.635 OA
ATOM     65  O2  KQV A 701       8.746  44.077  -1.681  1.00  0.00    -0.635 OA
ENDBRANCH  59  62
ENDBRANCH  57  59
ENDBRANCH  46  49
ENDBRANCH   1  45
TORSDOF 13
ENDMDL
MODEL 29
REMARK VINA RESULT:    -5.389      2.738      4.316
REMARK INTER + INTRA:         -11.823
REMARK INTER:                  -9.321
REMARK INTRA:                  -2.502
REMARK UNBOUND:                -2.339
REMARK  13 active torsions:
REMARK  status: ('A' for Active; 'I' for Inactive)
REMARK    1  A    between atoms: C1_1  and  C_13 
REMARK    2  A    between atoms: C5_5  and  C6_6 
REMARK       I    between atoms: C6_6  and  N1_10 
REMARK    3  A    between atoms: C7_7  and  N1_10 
REMARK    4  A    between atoms: C_13  and  P_20 
REMARK       I    between atoms: N6_24  and  C34_25 
REMARK    5  A    between atoms: C9_34  and  C10_35 
REMARK       I    between atoms: C10_35  and  N3_37 
REMARK    6  A    between atoms: N3_37  and  C11_38 
REMARK    7  A    between atoms: C11_38  and  C15_44 
REMARK    8  A    between atoms: C11_38  and  C12_39 
REMARK    9  A    between atoms: C12_39  and  C13_40 
REMARK   10  A    between atoms: C13_40  and  C14_41 
REMARK       I    between atoms: C14_41  and  N4_43 
REMARK       I    between atoms: C15_44  and  N5_46 
REMARK   11  A    between atoms: N5_46  and  C16_47 
REMARK   12  A    between atoms: C16_47  and  C17_54 
REMARK   13  A    between atoms: C16_47  and  C23_48 
ROOT
ATOM      1  C7  KQV A 701      15.867  53.435  -2.586  1.00  0.00     0.195 C 
ATOM      2  C8  KQV A 701      15.746  54.479  -1.442  1.00  0.00     0.245 C 
ATOM      3  N2  KQV A 701      17.004  54.915  -0.794  1.00  0.00    -0.332 N 
ATOM      4  C36 KQV A 701      16.421  54.161  -3.858  1.00  0.00     0.160 C 
ATOM      5  N6  KQV A 701      17.940  54.008  -3.962  1.00  0.00    -0.350 N 
ATOM      6  C34 KQV A 701      18.561  53.027  -4.677  1.00  0.00     0.215 C 
ATOM      7  O6  KQV A 701      19.223  53.297  -5.669  1.00  0.00    -0.274 OA
ATOM      8  C35 KQV A 701      18.444  51.611  -4.194  1.00  0.00     0.117 C 
ATOM      9  C33 KQV A 701      18.749  55.047  -3.309  1.00  0.00     0.128 C 
ATOM     10  C32 KQV A 701      19.259  54.700  -1.926  1.00  0.00     0.045 C 
ATOM     11  C31 KQV A 701      18.293  54.188  -0.845  1.00  0.00     0.089 C 
ATOM     12  O7  KQV A 701      14.662  54.921  -1.097  1.00  0.00    -0.271 OA
ATOM     13  C30 KQV A 701      18.790  54.313   0.596  1.00  0.00     0.028 C 
ATOM     14  C29 KQV A 701      18.221  55.657   1.069  1.00  0.00     0.037 C 
ATOM     15  C9  KQV A 701      16.830  55.694   0.435  1.00  0.00     0.179 C 
ENDROOT
BRANCH  15  16
ATOM     16  C10 KQV A 701      16.368  57.123   0.164  1.00  0.00     0.241 C 
ATOM     17  O5  KQV A 701      17.079  57.912  -0.456  1.00  0.00    -0.271 OA
ATOM     18  N3  KQV A 701      15.149  57.425   0.627  1.00  0.00    -0.346 N 
ATOM     19  H   KQV A 701      14.679  56.756   1.175  1.00  0.00     0.163 HD
BRANCH  18  20
ATOM     20  C11 KQV A 701      14.483  58.689   0.361  1.00  0.00     0.177 C 
BRANCH  20  21
ATOM     21  C15 KQV A 701      14.820  59.769   1.391  1.00  0.00     0.241 C 
ATOM     22  N5  KQV A 701      13.787  60.444   1.920  1.00  0.00    -0.347 N 
ATOM     23  H   KQV A 701      12.871  60.154   1.703  1.00  0.00     0.163 HD
ATOM     24  O4  KQV A 701      15.994  59.991   1.684  1.00  0.00    -0.271 OA
BRANCH  22  25
ATOM     25  C16 KQV A 701      13.972  61.598   2.811  1.00  0.00     0.151 C 
BRANCH  25  26
ATOM     26  C17 KQV A 701      13.090  61.534   4.052  1.00  0.00    -0.031 A 
ATOM     27  C18 KQV A 701      12.271  62.602   4.405  1.00  0.00     0.009 A 
ATOM     28  C19 KQV A 701      11.531  62.567   5.578  1.00  0.00     0.001 A 
ATOM     29  C20 KQV A 701      11.591  61.462   6.407  1.00  0.00     0.000 A 
ATOM     30  C21 KQV A 701      12.394  60.391   6.061  1.00  0.00     0.001 A 
ATOM     31  C22 KQV A 701      13.137  60.426   4.889  1.00  0.00     0.009 A 
ENDBRANCH  25  26
BRANCH  25  32
ATOM     32  C23 KQV A 701      13.918  62.939   2.086  1.00  0.00    -0.031 A 
ATOM     33  C28 KQV A 701      13.040  63.148   1.027  1.00  0.00     0.009 A 
ATOM     34  C27 KQV A 701      13.052  64.345   0.324  1.00  0.00     0.001 A 
ATOM     35  C26 KQV A 701      13.937  65.348   0.672  1.00  0.00     0.000 A 
ATOM     36  C25 KQV A 701      14.804  65.158   1.731  1.00  0.00     0.001 A 
ATOM     37  C24 KQV A 701      14.792  63.963   2.436  1.00  0.00     0.009 A 
ENDBRANCH  25  32
ENDBRANCH  22  25
ENDBRANCH  20  21
BRANCH  20  38
ATOM     38  C12 KQV A 701      12.968  58.493   0.263  1.00  0.00     0.044 C 
BRANCH  38  39
ATOM     39  C13 KQV A 701      12.554  57.035   0.037  1.00  0.00     0.105 C 
BRANCH  39  40
ATOM     40  C14 KQV A 701      11.560  56.823  -1.083  1.00  0.00     0.215 C 
ATOM     41  N4  KQV A 701      10.921  57.904  -1.503  1.00  0.00    -0.370 N 
ATOM     42  H   KQV A 701      11.101  58.777  -1.084  1.00  0.00     0.159 HD
ATOM     43  H   KQV A 701      10.267  57.836  -2.236  1.00  0.00     0.159 HD
ATOM     44  O3  KQV A 701      11.374  55.706  -1.572  1.00  0.00    -0.274 OA
ENDBRANCH  39  40
ENDBRANCH  38  39
ENDBRANCH  20  38
ENDBRANCH  18  20
ENDBRANCH  15  16
BRANCH   1  45
ATOM     45  N1  KQV A 701      14.703  52.565  -2.679  1.00  0.00    -0.341 N 
ATOM     46  C6  KQV A 701      14.495  51.642  -3.638  1.00  0.00     0.269 C 
ATOM     47  O8  KQV A 701      15.131  51.600  -4.693  1.00  0.00    -0.266 OA
ATOM     48  H   KQV A 701      14.012  52.660  -1.985  1.00  0.00     0.163 HD
BRANCH  46  49
ATOM     49  C5  KQV A 701      13.437  50.644  -3.345  1.00  0.00     0.102 A 
ATOM     50  N   KQV A 701      12.546  50.149  -4.276  1.00  0.00    -0.351 N 
ATOM     51  C4  KQV A 701      11.749  49.193  -3.666  1.00  0.00     0.043 A 
ATOM     52  H   KQV A 701      12.486  50.429  -5.218  1.00  0.00     0.166 HD
ATOM     53  C3  KQV A 701      12.152  49.091  -2.322  1.00  0.00    -0.006 A 
ATOM     54  C38 KQV A 701      10.726  48.400  -4.185  1.00  0.00     0.031 A 
ATOM     55  C2  KQV A 701      11.514  48.162  -1.504  1.00  0.00     0.027 A 
ATOM     56  C37 KQV A 701      13.222  50.024  -2.141  1.00  0.00     0.049 A 
ATOM     57  C1  KQV A 701      10.507  47.339  -2.001  1.00  0.00     0.028 A 
ATOM     58  C39 KQV A 701      10.116  47.479  -3.337  1.00  0.00     0.016 A 
BRANCH  57  59
ATOM     59  C   KQV A 701       9.978  46.254  -1.038  1.00  0.00     0.380 C 
ATOM     60  F   KQV A 701       8.621  46.203  -1.079  1.00  0.00    -0.185 F 
ATOM     61  F1  KQV A 701      10.165  46.610   0.253  1.00  0.00    -0.185 F 
BRANCH  59  62
ATOM     62  P   KQV A 701      10.684  44.546  -1.398  1.00  0.00     0.339 P 
ATOM     63  O1  KQV A 701      12.002  44.804  -2.164  1.00  0.00    -0.635 OA
ATOM     64  O   KQV A 701      11.033  43.965  -0.015  1.00  0.00    -0.635 OA
ATOM     65  O2  KQV A 701       9.721  43.688  -2.157  1.00  0.00    -0.635 OA
ENDBRANCH  59  62
ENDBRANCH  57  59
ENDBRANCH  46  49
ENDBRANCH   1  45
TORSDOF 13
ENDMDL
MODEL 30
REMARK VINA RESULT:    -5.381      2.383      4.357
REMARK INTER + INTRA:         -11.810
REMARK INTER:                  -9.669
REMARK INTRA:                  -2.141
REMARK UNBOUND:                -2.339
REMARK  13 active torsions:
REMARK  status: ('A' for Active; 'I' for Inactive)
REMARK    1  A    between atoms: C1_1  and  C_13 
REMARK    2  A    between atoms: C5_5  and  C6_6 
REMARK       I    between atoms: C6_6  and  N1_10 
REMARK    3  A    between atoms: C7_7  and  N1_10 
REMARK    4  A    between atoms: C_13  and  P_20 
REMARK       I    between atoms: N6_24  and  C34_25 
REMARK    5  A    between atoms: C9_34  and  C10_35 
REMARK       I    between atoms: C10_35  and  N3_37 
REMARK    6  A    between atoms: N3_37  and  C11_38 
REMARK    7  A    between atoms: C11_38  and  C15_44 
REMARK    8  A    between atoms: C11_38  and  C12_39 
REMARK    9  A    between atoms: C12_39  and  C13_40 
REMARK   10  A    between atoms: C13_40  and  C14_41 
REMARK       I    between atoms: C14_41  and  N4_43 
REMARK       I    between atoms: C15_44  and  N5_46 
REMARK   11  A    between atoms: N5_46  and  C16_47 
REMARK   12  A    between atoms: C16_47  and  C17_54 
REMARK   13  A    between atoms: C16_47  and  C23_48 
ROOT
ATOM      1  C7  KQV A 701      14.458  55.404  -2.644  1.00  0.00     0.195 C 
ATOM      2  C8  KQV A 701      15.011  56.226  -1.447  1.00  0.00     0.245 C 
ATOM      3  N2  KQV A 701      16.040  57.248  -1.753  1.00  0.00    -0.332 N 
ATOM      4  C36 KQV A 701      13.488  56.320  -3.464  1.00  0.00     0.160 C 
ATOM      5  N6  KQV A 701      14.215  56.978  -4.639  1.00  0.00    -0.350 N 
ATOM      6  C34 KQV A 701      14.242  56.467  -5.902  1.00  0.00     0.215 C 
ATOM      7  O6  KQV A 701      13.689  57.048  -6.826  1.00  0.00    -0.274 OA
ATOM      8  C35 KQV A 701      14.998  55.192  -6.139  1.00  0.00     0.117 C 
ATOM      9  C33 KQV A 701      14.840  58.282  -4.375  1.00  0.00     0.128 C 
ATOM     10  C32 KQV A 701      16.322  58.241  -4.065  1.00  0.00     0.045 C 
ATOM     11  C31 KQV A 701      16.865  57.295  -2.981  1.00  0.00     0.089 C 
ATOM     12  O7  KQV A 701      14.614  56.040  -0.310  1.00  0.00    -0.271 OA
ATOM     13  C30 KQV A 701      18.246  57.650  -2.428  1.00  0.00     0.028 C 
ATOM     14  C29 KQV A 701      17.941  58.502  -1.188  1.00  0.00     0.037 C 
ATOM     15  C9  KQV A 701      16.715  57.816  -0.583  1.00  0.00     0.179 C 
ENDROOT
BRANCH  15  16
ATOM     16  C10 KQV A 701      15.836  58.799   0.184  1.00  0.00     0.241 C 
ATOM     17  O5  KQV A 701      15.953  58.938   1.400  1.00  0.00    -0.271 OA
ATOM     18  N3  KQV A 701      14.970  59.493  -0.565  1.00  0.00    -0.346 N 
ATOM     19  H   KQV A 701      14.893  59.267  -1.520  1.00  0.00     0.163 HD
BRANCH  18  20
ATOM     20  C11 KQV A 701      14.138  60.564  -0.041  1.00  0.00     0.177 C 
BRANCH  20  21
ATOM     21  C15 KQV A 701      13.312  60.137   1.173  1.00  0.00     0.241 C 
ATOM     22  N5  KQV A 701      13.696  60.620   2.366  1.00  0.00    -0.347 N 
ATOM     23  H   KQV A 701      14.415  61.292   2.395  1.00  0.00     0.163 HD
ATOM     24  O4  KQV A 701      12.357  59.375   1.028  1.00  0.00    -0.271 OA
BRANCH  22  25
ATOM     25  C16 KQV A 701      13.084  60.183   3.628  1.00  0.00     0.151 C 
BRANCH  25  26
ATOM     26  C17 KQV A 701      12.579  61.345   4.474  1.00  0.00    -0.031 A 
ATOM     27  C18 KQV A 701      12.759  62.662   4.062  1.00  0.00     0.009 A 
ATOM     28  C19 KQV A 701      12.367  63.716   4.875  1.00  0.00     0.001 A 
ATOM     29  C20 KQV A 701      11.782  63.468   6.103  1.00  0.00     0.000 A 
ATOM     30  C21 KQV A 701      11.589  62.164   6.518  1.00  0.00     0.001 A 
ATOM     31  C22 KQV A 701      11.984  61.109   5.707  1.00  0.00     0.009 A 
ENDBRANCH  25  26
BRANCH  25  32
ATOM     32  C23 KQV A 701      13.938  59.183   4.403  1.00  0.00    -0.031 A 
ATOM     33  C28 KQV A 701      13.702  57.815   4.311  1.00  0.00     0.009 A 
ATOM     34  C27 KQV A 701      14.433  56.918   5.078  1.00  0.00     0.001 A 
ATOM     35  C26 KQV A 701      15.409  57.376   5.942  1.00  0.00     0.000 A 
ATOM     36  C25 KQV A 701      15.662  58.732   6.032  1.00  0.00     0.001 A 
ATOM     37  C24 KQV A 701      14.934  59.629   5.265  1.00  0.00     0.009 A 
ENDBRANCH  25  32
ENDBRANCH  22  25
ENDBRANCH  20  21
BRANCH  20  38
ATOM     38  C12 KQV A 701      13.232  61.131  -1.137  1.00  0.00     0.044 C 
BRANCH  38  39
ATOM     39  C13 KQV A 701      13.430  62.631  -1.378  1.00  0.00     0.105 C 
BRANCH  39  40
ATOM     40  C14 KQV A 701      13.408  63.484  -0.129  1.00  0.00     0.215 C 
ATOM     41  N4  KQV A 701      12.263  63.507   0.536  1.00  0.00    -0.370 N 
ATOM     42  H   KQV A 701      11.491  62.995   0.205  1.00  0.00     0.159 HD
ATOM     43  H   KQV A 701      12.185  64.036   1.363  1.00  0.00     0.159 HD
ATOM     44  O3  KQV A 701      14.408  64.105   0.241  1.00  0.00    -0.274 OA
ENDBRANCH  39  40
ENDBRANCH  38  39
ENDBRANCH  20  38
ENDBRANCH  18  20
ENDBRANCH  15  16
BRANCH   1  45
ATOM     45  N1  KQV A 701      14.057  54.058  -2.263  1.00  0.00    -0.341 N 
ATOM     46  C6  KQV A 701      12.788  53.607  -2.213  1.00  0.00     0.269 C 
ATOM     47  O8  KQV A 701      11.802  54.346  -2.229  1.00  0.00    -0.266 OA
ATOM     48  H   KQV A 701      14.772  53.424  -2.022  1.00  0.00     0.163 HD
BRANCH  46  49
ATOM     49  C5  KQV A 701      12.636  52.133  -2.146  1.00  0.00     0.102 A 
ATOM     50  N   KQV A 701      13.675  51.244  -1.958  1.00  0.00    -0.351 N 
ATOM     51  C4  KQV A 701      13.156  49.961  -1.882  1.00  0.00     0.043 A 
ATOM     52  H   KQV A 701      14.628  51.482  -1.889  1.00  0.00     0.166 HD
ATOM     53  C3  KQV A 701      11.761  50.053  -2.028  1.00  0.00    -0.006 A 
ATOM     54  C38 KQV A 701      13.792  48.736  -1.679  1.00  0.00     0.031 A 
ATOM     55  C2  KQV A 701      11.005  48.884  -1.954  1.00  0.00     0.027 A 
ATOM     56  C37 KQV A 701      11.454  51.440  -2.198  1.00  0.00     0.049 A 
ATOM     57  C1  KQV A 701      11.609  47.651  -1.727  1.00  0.00     0.028 A 
ATOM     58  C39 KQV A 701      13.002  47.592  -1.605  1.00  0.00     0.016 A 
BRANCH  57  59
ATOM     59  C   KQV A 701      10.656  46.454  -1.521  1.00  0.00     0.380 C 
ATOM     60  F   KQV A 701      10.535  46.165  -0.199  1.00  0.00    -0.185 F 
ATOM     61  F1  KQV A 701      11.210  45.304  -1.967  1.00  0.00    -0.185 F 
BRANCH  59  62
ATOM     62  P   KQV A 701       8.949  46.738  -2.262  1.00  0.00     0.339 P 
ATOM     63  O1  KQV A 701       8.282  45.344  -2.290  1.00  0.00    -0.635 OA
ATOM     64  O   KQV A 701       8.211  47.607  -1.227  1.00  0.00    -0.635 OA
ATOM     65  O2  KQV A 701       9.021  47.384  -3.609  1.00  0.00    -0.635 OA
ENDBRANCH  59  62
ENDBRANCH  57  59
ENDBRANCH  46  49
ENDBRANCH   1  45
TORSDOF 13
ENDMDL
MODEL 31
REMARK VINA RESULT:    -5.375      6.201      9.041
REMARK INTER + INTRA:         -11.798
REMARK INTER:                  -5.023
REMARK INTRA:                  -6.775
REMARK UNBOUND:                -2.339
REMARK  13 active torsions:
REMARK  status: ('A' for Active; 'I' for Inactive)
REMARK    1  A    between atoms: C1_1  and  C_13 
REMARK    2  A    between atoms: C5_5  and  C6_6 
REMARK       I    between atoms: C6_6  and  N1_10 
REMARK    3  A    between atoms: C7_7  and  N1_10 
REMARK    4  A    between atoms: C_13  and  P_20 
REMARK       I    between atoms: N6_24  and  C34_25 
REMARK    5  A    between atoms: C9_34  and  C10_35 
REMARK       I    between atoms: C10_35  and  N3_37 
REMARK    6  A    between atoms: N3_37  and  C11_38 
REMARK    7  A    between atoms: C11_38  and  C15_44 
REMARK    8  A    between atoms: C11_38  and  C12_39 
REMARK    9  A    between atoms: C12_39  and  C13_40 
REMARK   10  A    between atoms: C13_40  and  C14_41 
REMARK       I    between atoms: C14_41  and  N4_43 
REMARK       I    between atoms: C15_44  and  N5_46 
REMARK   11  A    between atoms: N5_46  and  C16_47 
REMARK   12  A    between atoms: C16_47  and  C17_54 
REMARK   13  A    between atoms: C16_47  and  C23_48 
ROOT
ATOM      1  C7  KQV A 701      12.501  58.311  -3.172  1.00  0.00     0.195 C 
ATOM      2  C8  KQV A 701      13.933  58.470  -3.754  1.00  0.00     0.245 C 
ATOM      3  N2  KQV A 701      14.131  58.075  -5.167  1.00  0.00    -0.332 N 
ATOM      4  C36 KQV A 701      11.605  59.457  -3.751  1.00  0.00     0.160 C 
ATOM      5  N6  KQV A 701      10.834  58.982  -4.984  1.00  0.00    -0.350 N 
ATOM      6  C34 KQV A 701       9.566  58.483  -4.946  1.00  0.00     0.215 C 
ATOM      7  O6  KQV A 701       8.637  59.088  -5.462  1.00  0.00    -0.274 OA
ATOM      8  C35 KQV A 701       9.344  57.153  -4.286  1.00  0.00     0.117 C 
ATOM      9  C33 KQV A 701      11.496  59.168  -6.283  1.00  0.00     0.128 C 
ATOM     10  C32 KQV A 701      12.220  57.953  -6.824  1.00  0.00     0.045 C 
ATOM     11  C31 KQV A 701      13.232  57.196  -5.948  1.00  0.00     0.089 C 
ATOM     12  O7  KQV A 701      14.850  58.902  -3.076  1.00  0.00    -0.271 OA
ATOM     13  C30 KQV A 701      14.223  56.309  -6.703  1.00  0.00     0.028 C 
ATOM     14  C29 KQV A 701      15.446  57.213  -6.909  1.00  0.00     0.037 C 
ATOM     15  C9  KQV A 701      15.530  57.996  -5.598  1.00  0.00     0.179 C 
ENDROOT
BRANCH  15  16
ATOM     16  C10 KQV A 701      16.161  59.371  -5.799  1.00  0.00     0.241 C 
ATOM     17  O5  KQV A 701      16.091  59.948  -6.882  1.00  0.00    -0.271 OA
ATOM     18  N3  KQV A 701      16.759  59.887  -4.718  1.00  0.00    -0.346 N 
ATOM     19  H   KQV A 701      16.831  59.325  -3.912  1.00  0.00     0.163 HD
BRANCH  18  20
ATOM     20  C11 KQV A 701      17.306  61.233  -4.671  1.00  0.00     0.177 C 
BRANCH  20  21
ATOM     21  C15 KQV A 701      17.332  61.817  -3.258  1.00  0.00     0.241 C 
ATOM     22  N5  KQV A 701      16.638  61.157  -2.317  1.00  0.00    -0.347 N 
ATOM     23  H   KQV A 701      16.234  60.289  -2.549  1.00  0.00     0.163 HD
ATOM     24  O4  KQV A 701      17.957  62.853  -3.035  1.00  0.00    -0.271 OA
BRANCH  22  25
ATOM     25  C16 KQV A 701      16.460  61.680  -0.956  1.00  0.00     0.151 C 
BRANCH  25  26
ATOM     26  C17 KQV A 701      16.755  60.641   0.119  1.00  0.00    -0.031 A 
ATOM     27  C18 KQV A 701      16.825  59.287  -0.192  1.00  0.00     0.009 A 
ATOM     28  C19 KQV A 701      17.015  58.341   0.805  1.00  0.00     0.001 A 
ATOM     29  C20 KQV A 701      17.149  58.737   2.123  1.00  0.00     0.000 A 
ATOM     30  C21 KQV A 701      17.091  60.080   2.444  1.00  0.00     0.001 A 
ATOM     31  C22 KQV A 701      16.897  61.027   1.447  1.00  0.00     0.009 A 
ENDBRANCH  25  26
BRANCH  25  32
ATOM     32  C23 KQV A 701      15.138  62.415  -0.755  1.00  0.00    -0.031 A 
ATOM     33  C28 KQV A 701      15.108  63.783  -0.507  1.00  0.00     0.009 A 
ATOM     34  C27 KQV A 701      13.908  64.429  -0.250  1.00  0.00     0.001 A 
ATOM     35  C26 KQV A 701      12.722  63.718  -0.242  1.00  0.00     0.000 A 
ATOM     36  C25 KQV A 701      12.737  62.361  -0.501  1.00  0.00     0.001 A 
ATOM     37  C24 KQV A 701      13.937  61.714  -0.760  1.00  0.00     0.009 A 
ENDBRANCH  25  32
ENDBRANCH  22  25
ENDBRANCH  20  21
BRANCH  20  38
ATOM     38  C12 KQV A 701      16.547  62.160  -5.624  1.00  0.00     0.044 C 
BRANCH  38  39
ATOM     39  C13 KQV A 701      15.456  62.985  -4.934  1.00  0.00     0.105 C 
BRANCH  39  40
ATOM     40  C14 KQV A 701      14.066  62.397  -5.018  1.00  0.00     0.215 C 
ATOM     41  N4  KQV A 701      13.778  61.747  -6.135  1.00  0.00    -0.370 N 
ATOM     42  H   KQV A 701      14.449  61.678  -6.852  1.00  0.00     0.159 HD
ATOM     43  H   KQV A 701      12.892  61.333  -6.250  1.00  0.00     0.159 HD
ATOM     44  O3  KQV A 701      13.263  62.513  -4.089  1.00  0.00    -0.274 OA
ENDBRANCH  39  40
ENDBRANCH  38  39
ENDBRANCH  20  38
ENDBRANCH  18  20
ENDBRANCH  15  16
BRANCH   1  45
ATOM     45  N1  KQV A 701      12.503  58.024  -1.745  1.00  0.00    -0.341 N 
ATOM     46  C6  KQV A 701      13.160  57.006  -1.155  1.00  0.00     0.269 C 
ATOM     47  O8  KQV A 701      13.622  56.044  -1.774  1.00  0.00    -0.266 OA
ATOM     48  H   KQV A 701      11.982  58.623  -1.163  1.00  0.00     0.163 HD
BRANCH  46  49
ATOM     49  C5  KQV A 701      13.310  57.109   0.317  1.00  0.00     0.102 A 
ATOM     50  N   KQV A 701      13.781  56.098   1.131  1.00  0.00    -0.351 N 
ATOM     51  C4  KQV A 701      13.847  56.569   2.433  1.00  0.00     0.043 A 
ATOM     52  H   KQV A 701      14.028  55.192   0.836  1.00  0.00     0.166 HD
ATOM     53  C3  KQV A 701      13.407  57.905   2.430  1.00  0.00    -0.006 A 
ATOM     54  C38 KQV A 701      14.274  55.942   3.603  1.00  0.00     0.031 A 
ATOM     55  C2  KQV A 701      13.414  58.611   3.632  1.00  0.00     0.027 A 
ATOM     56  C37 KQV A 701      13.067  58.224   1.077  1.00  0.00     0.049 A 
ATOM     57  C1  KQV A 701      13.859  58.019   4.810  1.00  0.00     0.028 A 
ATOM     58  C39 KQV A 701      14.272  56.683   4.782  1.00  0.00     0.016 A 
BRANCH  57  59
ATOM     59  C   KQV A 701      13.955  58.945   6.042  1.00  0.00     0.380 C 
ATOM     60  F   KQV A 701      13.771  58.235   7.185  1.00  0.00    -0.185 F 
ATOM     61  F1  KQV A 701      12.897  59.785   6.108  1.00  0.00    -0.185 F 
BRANCH  59  62
ATOM     62  P   KQV A 701      15.590  59.875   6.135  1.00  0.00     0.339 P 
ATOM     63  O1  KQV A 701      15.398  61.123   5.243  1.00  0.00    -0.635 OA
ATOM     64  O   KQV A 701      15.695  60.339   7.600  1.00  0.00    -0.635 OA
ATOM     65  O2  KQV A 701      16.746  59.024   5.716  1.00  0.00    -0.635 OA
ENDBRANCH  59  62
ENDBRANCH  57  59
ENDBRANCH  46  49
ENDBRANCH   1  45
TORSDOF 13
ENDMDL
MODEL 32
REMARK VINA RESULT:    -5.368      4.656      9.889
REMARK INTER + INTRA:         -11.787
REMARK INTER:                  -7.539
REMARK INTRA:                  -4.247
REMARK UNBOUND:                -2.339
REMARK  13 active torsions:
REMARK  status: ('A' for Active; 'I' for Inactive)
REMARK    1  A    between atoms: C1_1  and  C_13 
REMARK    2  A    between atoms: C5_5  and  C6_6 
REMARK       I    between atoms: C6_6  and  N1_10 
REMARK    3  A    between atoms: C7_7  and  N1_10 
REMARK    4  A    between atoms: C_13  and  P_20 
REMARK       I    between atoms: N6_24  and  C34_25 
REMARK    5  A    between atoms: C9_34  and  C10_35 
REMARK       I    between atoms: C10_35  and  N3_37 
REMARK    6  A    between atoms: N3_37  and  C11_38 
REMARK    7  A    between atoms: C11_38  and  C15_44 
REMARK    8  A    between atoms: C11_38  and  C12_39 
REMARK    9  A    between atoms: C12_39  and  C13_40 
REMARK   10  A    between atoms: C13_40  and  C14_41 
REMARK       I    between atoms: C14_41  and  N4_43 
REMARK       I    between atoms: C15_44  and  N5_46 
REMARK   11  A    between atoms: N5_46  and  C16_47 
REMARK   12  A    between atoms: C16_47  and  C17_54 
REMARK   13  A    between atoms: C16_47  and  C23_48 
ROOT
ATOM      1  C7  KQV A 701      13.158  59.173  -3.150  1.00  0.00     0.195 C 
ATOM      2  C8  KQV A 701      12.455  57.931  -3.763  1.00  0.00     0.245 C 
ATOM      3  N2  KQV A 701      11.458  58.181  -4.830  1.00  0.00    -0.332 N 
ATOM      4  C36 KQV A 701      14.207  59.705  -4.183  1.00  0.00     0.160 C 
ATOM      5  N6  KQV A 701      13.619  60.830  -5.036  1.00  0.00    -0.350 N 
ATOM      6  C34 KQV A 701      13.750  62.156  -4.745  1.00  0.00     0.215 C 
ATOM      7  O6  KQV A 701      14.402  62.896  -5.469  1.00  0.00    -0.274 OA
ATOM      8  C35 KQV A 701      13.044  62.693  -3.535  1.00  0.00     0.117 C 
ATOM      9  C33 KQV A 701      12.951  60.429  -6.282  1.00  0.00     0.128 C 
ATOM     10  C32 KQV A 701      11.443  60.309  -6.201  1.00  0.00     0.045 C 
ATOM     11  C31 KQV A 701      10.786  59.474  -5.091  1.00  0.00     0.089 C 
ATOM     12  O7  KQV A 701      12.716  56.801  -3.384  1.00  0.00    -0.271 OA
ATOM     13  C30 KQV A 701       9.344  59.039  -5.359  1.00  0.00     0.028 C 
ATOM     14  C29 KQV A 701       9.488  57.646  -5.986  1.00  0.00     0.037 C 
ATOM     15  C9  KQV A 701      10.640  57.022  -5.198  1.00  0.00     0.179 C 
ENDROOT
BRANCH  15  16
ATOM     16  C10 KQV A 701      11.410  56.001  -6.030  1.00  0.00     0.241 C 
ATOM     17  O5  KQV A 701      10.823  55.237  -6.795  1.00  0.00    -0.271 OA
ATOM     18  N3  KQV A 701      12.739  56.026  -5.878  1.00  0.00    -0.346 N 
ATOM     19  H   KQV A 701      13.119  56.621  -5.192  1.00  0.00     0.163 HD
BRANCH  18  20
ATOM     20  C11 KQV A 701      13.652  55.221  -6.674  1.00  0.00     0.177 C 
BRANCH  20  21
ATOM     21  C15 KQV A 701      14.217  54.025  -5.905  1.00  0.00     0.241 C 
ATOM     22  N5  KQV A 701      14.218  54.113  -4.566  1.00  0.00    -0.347 N 
ATOM     23  H   KQV A 701      13.773  54.882  -4.141  1.00  0.00     0.163 HD
ATOM     24  O4  KQV A 701      14.655  53.054  -6.520  1.00  0.00    -0.271 OA
BRANCH  22  25
ATOM     25  C16 KQV A 701      14.857  53.105  -3.709  1.00  0.00     0.151 C 
BRANCH  25  26
ATOM     26  C17 KQV A 701      13.855  52.158  -3.062  1.00  0.00    -0.031 A 
ATOM     27  C18 KQV A 701      14.218  50.864  -2.705  1.00  0.00     0.009 A 
ATOM     28  C19 KQV A 701      13.279  49.983  -2.188  1.00  0.00     0.001 A 
ATOM     29  C20 KQV A 701      11.968  50.387  -2.012  1.00  0.00     0.000 A 
ATOM     30  C21 KQV A 701      11.598  51.674  -2.354  1.00  0.00     0.001 A 
ATOM     31  C22 KQV A 701      12.536  52.555  -2.874  1.00  0.00     0.009 A 
ENDBRANCH  25  26
BRANCH  25  32
ATOM     32  C23 KQV A 701      15.870  53.692  -2.731  1.00  0.00    -0.031 A 
ATOM     33  C28 KQV A 701      17.221  53.372  -2.817  1.00  0.00     0.009 A 
ATOM     34  C27 KQV A 701      18.123  53.849  -1.877  1.00  0.00     0.001 A 
ATOM     35  C26 KQV A 701      17.688  54.656  -0.842  1.00  0.00     0.000 A 
ATOM     36  C25 KQV A 701      16.351  54.993  -0.754  1.00  0.00     0.001 A 
ATOM     37  C24 KQV A 701      15.448  54.518  -1.694  1.00  0.00     0.009 A 
ENDBRANCH  25  32
ENDBRANCH  22  25
ENDBRANCH  20  21
BRANCH  20  38
ATOM     38  C12 KQV A 701      14.783  56.083  -7.238  1.00  0.00     0.044 C 
BRANCH  38  39
ATOM     39  C13 KQV A 701      16.112  55.912  -6.493  1.00  0.00     0.105 C 
BRANCH  39  40
ATOM     40  C14 KQV A 701      16.414  56.990  -5.478  1.00  0.00     0.215 C 
ATOM     41  N4  KQV A 701      16.939  58.108  -5.957  1.00  0.00    -0.370 N 
ATOM     42  H   KQV A 701      17.116  58.194  -6.921  1.00  0.00     0.159 HD
ATOM     43  H   KQV A 701      17.151  58.853  -5.349  1.00  0.00     0.159 HD
ATOM     44  O3  KQV A 701      16.171  56.829  -4.279  1.00  0.00    -0.274 OA
ENDBRANCH  39  40
ENDBRANCH  38  39
ENDBRANCH  20  38
ENDBRANCH  18  20
ENDBRANCH  15  16
BRANCH   1  45
ATOM     45  N1  KQV A 701      13.527  58.979  -1.755  1.00  0.00    -0.341 N 
ATOM     46  C6  KQV A 701      12.698  59.121  -0.703  1.00  0.00     0.269 C 
ATOM     47  O8  KQV A 701      11.603  59.685  -0.769  1.00  0.00    -0.266 OA
ATOM     48  H   KQV A 701      14.458  58.723  -1.566  1.00  0.00     0.163 HD
BRANCH  46  49
ATOM     49  C5  KQV A 701      13.180  58.540   0.574  1.00  0.00     0.102 A 
ATOM     50  N   KQV A 701      13.047  59.140   1.810  1.00  0.00    -0.351 N 
ATOM     51  C4  KQV A 701      13.551  58.286   2.777  1.00  0.00     0.043 A 
ATOM     52  H   KQV A 701      12.658  60.029   1.977  1.00  0.00     0.166 HD
ATOM     53  C3  KQV A 701      14.011  57.126   2.129  1.00  0.00    -0.006 A 
ATOM     54  C38 KQV A 701      13.624  58.426   4.163  1.00  0.00     0.031 A 
ATOM     55  C2  KQV A 701      14.539  56.094   2.903  1.00  0.00     0.027 A 
ATOM     56  C37 KQV A 701      13.769  57.312   0.731  1.00  0.00     0.049 A 
ATOM     57  C1  KQV A 701      14.600  56.196   4.290  1.00  0.00     0.028 A 
ATOM     58  C39 KQV A 701      14.152  57.372   4.903  1.00  0.00     0.016 A 
BRANCH  57  59
ATOM     59  C   KQV A 701      15.069  54.933   5.045  1.00  0.00     0.380 C 
ATOM     60  F   KQV A 701      14.467  53.826   4.539  1.00  0.00    -0.185 F 
ATOM     61  F1  KQV A 701      14.587  54.911   6.308  1.00  0.00    -0.185 F 
BRANCH  59  62
ATOM     62  P   KQV A 701      16.937  54.707   5.008  1.00  0.00     0.339 P 
ATOM     63  O1  KQV A 701      17.510  56.111   4.709  1.00  0.00    -0.635 OA
ATOM     64  O   KQV A 701      17.317  54.326   6.451  1.00  0.00    -0.635 OA
ATOM     65  O2  KQV A 701      17.359  53.674   4.010  1.00  0.00    -0.635 OA
ENDBRANCH  59  62
ENDBRANCH  57  59
ENDBRANCH  46  49
ENDBRANCH   1  45
TORSDOF 13
ENDMDL
