MODEL 1
REMARK VINA RESULT:    -9.956      0.000      0.000
REMARK INTER + INTRA:         -16.421
REMARK INTER:                 -14.321
REMARK INTRA:                  -2.100
REMARK UNBOUND:                -2.100
REMARK  8 active torsions:
REMARK  status: ('A' for Active; 'I' for Inactive)
REMARK       I    between atoms: C21_2  and  N5_4 
REMARK    1  A    between atoms: N5_4  and  C17_5 
REMARK    2  A    between atoms: C15_10  and  C3_11 
REMARK    3  A    between atoms: C6_20  and  C23_21 
REMARK    4  A    between atoms: C24_22  and  N7_23 
REMARK    5  A    between atoms: N3_29  and  C7_30 
REMARK    6  A    between atoms: C10_35  and  C13_36 
REMARK    7  A    between atoms: C13_36  and  N4_37 
REMARK       I    between atoms: N4_37  and  C14_38 
REMARK    8  A    between atoms: C14_38  and  C28_40 
ROOT
ATOM      1  C3  0R4 A 501      38.449  44.609  20.396  1.00  0.00     0.044 A 
ATOM      2  C2  0R4 A 501      39.737  45.137  20.172  1.00  0.00     0.033 A 
ATOM      3  C1  0R4 A 501      40.090  45.703  18.932  1.00  0.00     0.036 A 
ATOM      4  N1  0R4 A 501      37.534  44.632  19.411  1.00  0.00    -0.339 N 
ATOM      5  H1  0R4 A 501      36.607  44.240  19.579  1.00  0.00     0.167 HD
ATOM      6  C5  0R4 A 501      37.818  45.168  18.198  1.00  0.00     0.141 A 
ATOM      7  C4  0R4 A 501      39.140  45.738  17.905  1.00  0.00     0.079 A 
ATOM      8  N2  0R4 A 501      39.098  46.171  16.611  1.00  0.00    -0.338 N 
ATOM      9  H2  0R4 A 501      39.870  46.618  16.115  1.00  0.00     0.167 HD
ATOM     10  C6  0R4 A 501      37.865  45.915  16.081  1.00  0.00     0.128 A 
ATOM     11  N3  0R4 A 501      37.163  45.293  17.054  1.00  0.00    -0.281 N 
ENDROOT
BRANCH  11  12
ATOM     12  C7  0R4 A 501      35.860  44.932  17.020  1.00  0.00     0.043 A 
ATOM     13  C8  0R4 A 501      35.499  43.591  16.775  1.00  0.00     0.031 A 
ATOM     14  C9  0R4 A 501      34.176  43.161  16.676  1.00  0.00     0.011 A 
ATOM     15  C10 0R4 A 501      33.149  44.084  16.766  1.00  0.00    -0.040 A 
ATOM     16  C11 0R4 A 501      33.456  45.429  16.996  1.00  0.00     0.011 A 
ATOM     17  C12 0R4 A 501      34.779  45.836  17.109  1.00  0.00     0.031 A 
BRANCH  15  18
ATOM     18  C13 0R4 A 501      31.713  43.611  16.652  1.00  0.00     0.161 C 
BRANCH  18  19
ATOM     19  N4  0R4 A 501      31.475  42.534  17.595  1.00  0.00    -0.353 N 
ATOM     20  C14 0R4 A 501      30.657  41.558  17.232  1.00  0.00     0.252 C 
ATOM     21  O2  0R4 A 501      29.892  41.717  16.297  1.00  0.00    -0.268 OA
ATOM     22  H   0R4 A 501      31.909  42.528  18.479  1.00  0.00     0.163 HD
BRANCH  20  23
ATOM     23  C28 0R4 A 501      30.647  40.239  17.930  1.00  0.00     0.035 A 
ATOM     24  C29 0R4 A 501      31.877  39.655  18.248  1.00  0.00     0.017 A 
ATOM     25  C30 0R4 A 501      31.926  38.429  18.905  1.00  0.00     0.004 A 
ATOM     26  C31 0R4 A 501      30.746  37.796  19.271  1.00  0.00     0.042 A 
ATOM     27  C32 0R4 A 501      29.522  38.379  18.965  1.00  0.00     0.117 A 
ATOM     28  C33 0R4 A 501      29.456  39.609  18.294  1.00  0.00     0.059 A 
ATOM     29  F1  0R4 A 501      28.396  37.727  19.325  1.00  0.00    -0.206 F 
ENDBRANCH  20  23
ENDBRANCH  18  19
ENDBRANCH  15  18
ENDBRANCH  11  12
BRANCH  10  30
ATOM     30  C23 0R4 A 501      37.398  46.243  14.702  1.00  0.00     0.052 A 
ATOM     31  C27 0R4 A 501      37.067  45.227  13.790  1.00  0.00     0.020 A 
ATOM     32  C26 0R4 A 501      36.621  45.569  12.519  1.00  0.00     0.018 A 
ATOM     33  C25 0R4 A 501      36.519  46.920  12.150  1.00  0.00     0.089 A 
ATOM     34  N6  0R4 A 501      36.844  47.908  13.014  1.00  0.00    -0.352 N 
ATOM     35  C24 0R4 A 501      37.275  47.664  14.263  1.00  0.00     0.112 A 
ATOM     36  H6  0R4 A 501      36.758  48.877  12.705  1.00  0.00     0.166 HD
BRANCH  35  37
ATOM     37  N7  0R4 A 501      37.580  48.697  15.110  1.00  0.00    -0.385 N 
ATOM     38  H   0R4 A 501      37.910  48.508  16.017  1.00  0.00     0.157 HD
ATOM     39  H   0R4 A 501      37.470  49.628  14.809  1.00  0.00     0.157 HD
ENDBRANCH  35  37
ENDBRANCH  10  30
BRANCH   1  40
ATOM     40  C15 0R4 A 501      38.051  44.002  21.706  1.00  0.00    -0.007 A 
ATOM     41  C20 0R4 A 501      37.368  42.780  21.730  1.00  0.00     0.014 A 
ATOM     42  C19 0R4 A 501      37.001  42.209  22.951  1.00  0.00     0.003 A 
ATOM     43  C18 0R4 A 501      37.303  42.847  24.160  1.00  0.00     0.029 A 
ATOM     44  C17 0R4 A 501      37.976  44.079  24.141  1.00  0.00     0.035 A 
ATOM     45  C16 0R4 A 501      38.343  44.643  22.914  1.00  0.00     0.043 A 
BRANCH  44  46
ATOM     46  N5  0R4 A 501      38.259  44.700  25.327  1.00  0.00    -0.327 N 
ATOM     47  C21 0R4 A 501      37.766  45.879  25.746  1.00  0.00     0.218 C 
ATOM     48  O1  0R4 A 501      36.929  46.553  25.138  1.00  0.00    -0.274 OA
ATOM     49  C22 0R4 A 501      38.325  46.333  27.067  1.00  0.00     0.117 C 
ATOM     50  H   0R4 A 501      38.885  44.240  25.931  1.00  0.00     0.169 HD
ENDBRANCH  44  46
ENDBRANCH   1  40
TORSDOF 8
ENDMDL
MODEL 2
REMARK VINA RESULT:    -9.503      1.139      1.169
REMARK INTER + INTRA:         -15.770
REMARK INTER:                 -13.602
REMARK INTRA:                  -2.168
REMARK UNBOUND:                -2.100
REMARK  8 active torsions:
REMARK  status: ('A' for Active; 'I' for Inactive)
REMARK       I    between atoms: C21_2  and  N5_4 
REMARK    1  A    between atoms: N5_4  and  C17_5 
REMARK    2  A    between atoms: C15_10  and  C3_11 
REMARK    3  A    between atoms: C6_20  and  C23_21 
REMARK    4  A    between atoms: C24_22  and  N7_23 
REMARK    5  A    between atoms: N3_29  and  C7_30 
REMARK    6  A    between atoms: C10_35  and  C13_36 
REMARK    7  A    between atoms: C13_36  and  N4_37 
REMARK       I    between atoms: N4_37  and  C14_38 
REMARK    8  A    between atoms: C14_38  and  C28_40 
ROOT
ATOM      1  C3  0R4 A 501      38.754  44.692  20.354  1.00  0.00     0.044 A 
ATOM      2  C2  0R4 A 501      40.032  45.224  20.091  1.00  0.00     0.033 A 
ATOM      3  C1  0R4 A 501      40.340  45.803  18.845  1.00  0.00     0.036 A 
ATOM      4  N1  0R4 A 501      37.805  44.722  19.403  1.00  0.00    -0.339 N 
ATOM      5  H1  0R4 A 501      36.885  44.326  19.600  1.00  0.00     0.167 HD
ATOM      6  C5  0R4 A 501      38.045  45.269  18.186  1.00  0.00     0.141 A 
ATOM      7  C4  0R4 A 501      39.355  45.844  17.851  1.00  0.00     0.079 A 
ATOM      8  N2  0R4 A 501      39.267  46.289  16.564  1.00  0.00    -0.338 N 
ATOM      9  H2  0R4 A 501      40.019  46.742  16.045  1.00  0.00     0.167 HD
ATOM     10  C6  0R4 A 501      38.017  46.035  16.075  1.00  0.00     0.128 A 
ATOM     11  N3  0R4 A 501      37.350  45.403  17.066  1.00  0.00    -0.281 N 
ENDROOT
BRANCH  11  12
ATOM     12  C7  0R4 A 501      36.047  45.039  17.074  1.00  0.00     0.043 A 
ATOM     13  C8  0R4 A 501      35.677  43.710  16.782  1.00  0.00     0.031 A 
ATOM     14  C9  0R4 A 501      34.351  43.280  16.722  1.00  0.00     0.011 A 
ATOM     15  C10 0R4 A 501      33.329  44.195  16.905  1.00  0.00    -0.040 A 
ATOM     16  C11 0R4 A 501      33.644  45.528  17.185  1.00  0.00     0.011 A 
ATOM     17  C12 0R4 A 501      34.971  45.934  17.257  1.00  0.00     0.031 A 
BRANCH  15  18
ATOM     18  C13 0R4 A 501      31.890  43.722  16.834  1.00  0.00     0.161 C 
BRANCH  18  19
ATOM     19  N4  0R4 A 501      31.702  42.587  17.719  1.00  0.00    -0.353 N 
ATOM     20  C14 0R4 A 501      30.784  41.690  17.394  1.00  0.00     0.252 C 
ATOM     21  O2  0R4 A 501      29.920  41.965  16.580  1.00  0.00    -0.268 OA
ATOM     22  H   0R4 A 501      32.240  42.487  18.537  1.00  0.00     0.163 HD
BRANCH  20  23
ATOM     23  C28 0R4 A 501      30.776  40.322  17.991  1.00  0.00     0.035 A 
ATOM     24  C29 0R4 A 501      32.006  39.699  18.221  1.00  0.00     0.017 A 
ATOM     25  C30 0R4 A 501      32.057  38.426  18.782  1.00  0.00     0.004 A 
ATOM     26  C31 0R4 A 501      30.879  37.782  19.138  1.00  0.00     0.042 A 
ATOM     27  C32 0R4 A 501      29.656  38.403  18.919  1.00  0.00     0.117 A 
ATOM     28  C33 0R4 A 501      29.587  39.681  18.345  1.00  0.00     0.059 A 
ATOM     29  F1  0R4 A 501      28.532  37.741  19.266  1.00  0.00    -0.206 F 
ENDBRANCH  20  23
ENDBRANCH  18  19
ENDBRANCH  15  18
ENDBRANCH  11  12
BRANCH  10  30
ATOM     30  C23 0R4 A 501      37.500  46.374  14.716  1.00  0.00     0.052 A 
ATOM     31  C27 0R4 A 501      37.110  45.367  13.819  1.00  0.00     0.020 A 
ATOM     32  C26 0R4 A 501      36.620  45.719  12.567  1.00  0.00     0.018 A 
ATOM     33  C25 0R4 A 501      36.533  47.072  12.202  1.00  0.00     0.089 A 
ATOM     34  N6  0R4 A 501      36.914  48.053  13.052  1.00  0.00    -0.352 N 
ATOM     35  C24 0R4 A 501      37.391  47.798  14.283  1.00  0.00     0.112 A 
ATOM     36  H6  0R4 A 501      36.837  49.023  12.747  1.00  0.00     0.166 HD
BRANCH  35  37
ATOM     37  N7  0R4 A 501      37.752  48.823  15.116  1.00  0.00    -0.385 N 
ATOM     38  H   0R4 A 501      37.171  49.074  15.869  1.00  0.00     0.157 HD
ATOM     39  H   0R4 A 501      38.595  49.309  14.962  1.00  0.00     0.157 HD
ENDBRANCH  35  37
ENDBRANCH  10  30
BRANCH   1  40
ATOM     40  C15 0R4 A 501      38.403  44.072  21.672  1.00  0.00    -0.007 A 
ATOM     41  C20 0R4 A 501      37.410  43.087  21.738  1.00  0.00     0.014 A 
ATOM     42  C19 0R4 A 501      37.086  42.503  22.965  1.00  0.00     0.003 A 
ATOM     43  C18 0R4 A 501      37.739  42.895  24.140  1.00  0.00     0.029 A 
ATOM     44  C17 0R4 A 501      38.726  43.891  24.082  1.00  0.00     0.035 A 
ATOM     45  C16 0R4 A 501      39.047  44.468  22.848  1.00  0.00     0.043 A 
BRANCH  44  46
ATOM     46  N5  0R4 A 501      39.354  44.274  25.236  1.00  0.00    -0.327 N 
ATOM     47  C21 0R4 A 501      40.478  43.739  25.746  1.00  0.00     0.218 C 
ATOM     48  O1  0R4 A 501      41.147  42.852  25.208  1.00  0.00    -0.274 OA
ATOM     49  C22 0R4 A 501      40.882  44.329  27.069  1.00  0.00     0.117 C 
ATOM     50  H   0R4 A 501      38.943  45.011  25.742  1.00  0.00     0.169 HD
ENDBRANCH  44  46
ENDBRANCH   1  40
TORSDOF 8
ENDMDL
MODEL 3
REMARK VINA RESULT:    -7.416      1.700      1.921
REMARK INTER + INTRA:         -12.768
REMARK INTER:                 -11.318
REMARK INTRA:                  -1.450
REMARK UNBOUND:                -2.100
REMARK  8 active torsions:
REMARK  status: ('A' for Active; 'I' for Inactive)
REMARK       I    between atoms: C21_2  and  N5_4 
REMARK    1  A    between atoms: N5_4  and  C17_5 
REMARK    2  A    between atoms: C15_10  and  C3_11 
REMARK    3  A    between atoms: C6_20  and  C23_21 
REMARK    4  A    between atoms: C24_22  and  N7_23 
REMARK    5  A    between atoms: N3_29  and  C7_30 
REMARK    6  A    between atoms: C10_35  and  C13_36 
REMARK    7  A    between atoms: C13_36  and  N4_37 
REMARK       I    between atoms: N4_37  and  C14_38 
REMARK    8  A    between atoms: C14_38  and  C28_40 
ROOT
ATOM      1  C3  0R4 A 501      39.946  45.187  19.889  1.00  0.00     0.044 A 
ATOM      2  C2  0R4 A 501      41.112  45.818  19.412  1.00  0.00     0.033 A 
ATOM      3  C1  0R4 A 501      41.159  46.393  18.127  1.00  0.00     0.036 A 
ATOM      4  N1  0R4 A 501      38.853  45.118  19.110  1.00  0.00    -0.339 N 
ATOM      5  H1  0R4 A 501      38.016  44.652  19.461  1.00  0.00     0.167 HD
ATOM      6  C5  0R4 A 501      38.840  45.657  17.866  1.00  0.00     0.141 A 
ATOM      7  C4  0R4 A 501      40.022  46.332  17.313  1.00  0.00     0.079 A 
ATOM      8  N2  0R4 A 501      39.684  46.740  16.055  1.00  0.00    -0.338 N 
ATOM      9  H2  0R4 A 501      40.298  47.243  15.415  1.00  0.00     0.167 HD
ATOM     10  C6  0R4 A 501      38.396  46.373  15.784  1.00  0.00     0.128 A 
ATOM     11  N3  0R4 A 501      37.959  45.709  16.878  1.00  0.00    -0.281 N 
ENDROOT
BRANCH  11  12
ATOM     12  C7  0R4 A 501      36.712  45.240  17.106  1.00  0.00     0.043 A 
ATOM     13  C8  0R4 A 501      36.397  43.893  16.829  1.00  0.00     0.031 A 
ATOM     14  C9  0R4 A 501      35.119  43.357  16.992  1.00  0.00     0.011 A 
ATOM     15  C10 0R4 A 501      34.081  44.179  17.396  1.00  0.00    -0.040 A 
ATOM     16  C11 0R4 A 501      34.341  45.525  17.672  1.00  0.00     0.011 A 
ATOM     17  C12 0R4 A 501      35.623  46.037  17.520  1.00  0.00     0.031 A 
BRANCH  15  18
ATOM     18  C13 0R4 A 501      32.694  43.591  17.567  1.00  0.00     0.161 C 
BRANCH  18  19
ATOM     19  N4  0R4 A 501      32.792  42.162  17.801  1.00  0.00    -0.353 N 
ATOM     20  C14 0R4 A 501      32.457  41.702  18.997  1.00  0.00     0.252 C 
ATOM     21  O2  0R4 A 501      32.388  42.462  19.947  1.00  0.00    -0.268 OA
ATOM     22  H   0R4 A 501      33.098  41.551  17.091  1.00  0.00     0.163 HD
BRANCH  20  23
ATOM     23  C28 0R4 A 501      32.142  40.261  19.226  1.00  0.00     0.035 A 
ATOM     24  C29 0R4 A 501      32.298  39.377  18.154  1.00  0.00     0.017 A 
ATOM     25  C30 0R4 A 501      32.025  38.022  18.314  1.00  0.00     0.004 A 
ATOM     26  C31 0R4 A 501      31.620  37.542  19.553  1.00  0.00     0.042 A 
ATOM     27  C32 0R4 A 501      31.474  38.417  20.622  1.00  0.00     0.117 A 
ATOM     28  C33 0R4 A 501      31.735  39.787  20.475  1.00  0.00     0.059 A 
ATOM     29  F1  0R4 A 501      31.067  37.916  21.807  1.00  0.00    -0.206 F 
ENDBRANCH  20  23
ENDBRANCH  18  19
ENDBRANCH  15  18
ENDBRANCH  11  12
BRANCH  10  30
ATOM     30  C23 0R4 A 501      37.634  46.639  14.528  1.00  0.00     0.052 A 
ATOM     31  C27 0R4 A 501      37.245  45.588  13.683  1.00  0.00     0.020 A 
ATOM     32  C26 0R4 A 501      36.524  45.871  12.529  1.00  0.00     0.018 A 
ATOM     33  C25 0R4 A 501      36.204  47.200  12.209  1.00  0.00     0.089 A 
ATOM     34  N6  0R4 A 501      36.581  48.223  13.009  1.00  0.00    -0.352 N 
ATOM     35  C24 0R4 A 501      37.272  48.036  14.145  1.00  0.00     0.112 A 
ATOM     36  H6  0R4 A 501      36.330  49.175  12.738  1.00  0.00     0.166 HD
BRANCH  35  37
ATOM     37  N7  0R4 A 501      37.622  49.101  14.933  1.00  0.00    -0.385 N 
ATOM     38  H   0R4 A 501      37.341  49.129  15.875  1.00  0.00     0.157 HD
ATOM     39  H   0R4 A 501      38.154  49.838  14.555  1.00  0.00     0.157 HD
ENDBRANCH  35  37
ENDBRANCH  10  30
BRANCH   1  40
ATOM     40  C15 0R4 A 501      39.873  44.569  21.252  1.00  0.00    -0.007 A 
ATOM     41  C20 0R4 A 501      40.931  43.778  21.717  1.00  0.00     0.014 A 
ATOM     42  C19 0R4 A 501      40.868  43.206  22.990  1.00  0.00     0.003 A 
ATOM     43  C18 0R4 A 501      39.752  43.407  23.811  1.00  0.00     0.029 A 
ATOM     44  C17 0R4 A 501      38.683  44.187  23.345  1.00  0.00     0.035 A 
ATOM     45  C16 0R4 A 501      38.756  44.760  22.070  1.00  0.00     0.043 A 
BRANCH  44  46
ATOM     46  N5  0R4 A 501      37.593  44.372  24.151  1.00  0.00    -0.327 N 
ATOM     47  C21 0R4 A 501      37.484  44.004  25.440  1.00  0.00     0.218 C 
ATOM     48  O1  0R4 A 501      38.387  43.491  26.108  1.00  0.00    -0.274 OA
ATOM     49  C22 0R4 A 501      36.131  44.280  26.035  1.00  0.00     0.117 C 
ATOM     50  H   0R4 A 501      36.812  44.817  23.748  1.00  0.00     0.169 HD
ENDBRANCH  44  46
ENDBRANCH   1  40
TORSDOF 8
ENDMDL
