MODEL 1
REMARK VINA RESULT:    -6.129      0.000      0.000
REMARK INTER + INTRA:          -9.762
REMARK INTER:                  -9.354
REMARK INTRA:                  -0.408
REMARK UNBOUND:                -0.408
REMARK  9 active torsions:
REMARK  status: ('A' for Active; 'I' for Inactive)
REMARK    1  A    between atoms: C1_1  and  N_26 
REMARK    2  A    between atoms: C3_3  and  C4_25 
REMARK    3  A    between atoms: C3_3  and  N_26 
REMARK    4  A    between atoms: C11_8  and  C13_10 
REMARK    5  A    between atoms: C19_14  and  O1_19 
REMARK    6  A    between atoms: C21_16  and  O_21 
REMARK    7  A    between atoms: C17_23  and  N1_24 
REMARK    8  A    between atoms: N1_24  and  C5_28 
REMARK    9  A    between atoms: N1_24  and  C4_25 
ROOT
ATOM      1  C7  5SF A 803      88.821  -0.061  10.958  1.00  0.00     0.034 A 
ATOM      2  C8  5SF A 803      87.983   0.254   9.868  1.00  0.00     0.059 A 
ATOM      3  C9  5SF A 803      87.139   1.376   9.955  1.00  0.00     0.061 A 
ATOM      4  C10 5SF A 803      87.192   2.202  11.098  1.00  0.00     0.061 A 
ATOM      5  C11 5SF A 803      86.223   0.825   7.923  1.00  0.00     0.061 A 
ATOM      6  C12 5SF A 803      87.073  -0.279   7.836  1.00  0.00     0.119 A 
ATOM      7  C5  5SF A 803      88.038   1.876  12.172  1.00  0.00     0.037 A 
ATOM      8  N2  5SF A 803      86.245   1.653   8.956  1.00  0.00    -0.352 N 
ATOM      9  H2  5SF A 803      85.624   2.461   9.004  1.00  0.00     0.166 HD
ATOM     10  N3  5SF A 803      87.955  -0.569   8.772  1.00  0.00    -0.362 N 
ATOM     11  H3  5SF A 803      88.585  -1.367   8.686  1.00  0.00     0.165 HD
ATOM     12  C6  5SF A 803      88.845   0.729  12.070  1.00  0.00     0.032 A 
ENDROOT
BRANCH   7  13
ATOM     13  N1  5SF A 803      88.007   2.634  13.370  1.00  0.00    -0.345 N 
BRANCH  13  14
ATOM     14  C17 5SF A 803      88.776   2.213  14.489  1.00  0.00     0.040 A 
ATOM     15  C22 5SF A 803      88.283   1.185  15.292  1.00  0.00     0.066 A 
ATOM     16  C21 5SF A 803      88.975   0.840  16.443  1.00  0.00     0.073 A 
ATOM     17  C20 5SF A 803      90.146   1.493  16.796  1.00  0.00     0.073 A 
ATOM     18  C19 5SF A 803      90.618   2.519  15.991  1.00  0.00     0.073 A 
ATOM     19  C18 5SF A 803      89.963   2.867  14.817  1.00  0.00     0.066 A 
BRANCH  16  20
ATOM     20  O   5SF A 803      88.381  -0.173  17.153  1.00  0.00    -0.356 OA
ATOM     21  C23 5SF A 803      89.082  -0.746  18.248  1.00  0.00     0.210 C 
ENDBRANCH  16  20
BRANCH  18  22
ATOM     22  O1  5SF A 803      91.756   3.245  16.249  1.00  0.00    -0.356 OA
ATOM     23  C24 5SF A 803      92.367   3.165  17.531  1.00  0.00     0.210 C 
ENDBRANCH  18  22
ENDBRANCH  13  14
BRANCH  13  24
ATOM     24  C4  5SF A 803      86.999   3.672  13.650  1.00  0.00     0.157 C 
BRANCH  24  25
ATOM     25  C3  5SF A 803      85.683   2.962  13.926  1.00  0.00     0.253 C 
BRANCH  25  26
ATOM     26  N   5SF A 803      84.545   3.889  13.800  1.00  0.00    -0.070 N 
ATOM     27  H   5SF A 803      84.753   4.551  13.052  1.00  0.00     0.277 HD
ATOM     28  H   5SF A 803      84.432   4.342  14.706  1.00  0.00     0.277 HD
BRANCH  26  29
ATOM     29  C1  5SF A 803      83.264   3.224  13.489  1.00  0.00     0.178 C 
ATOM     30  C2  5SF A 803      83.108   2.008  14.375  1.00  0.00     0.039 C 
ATOM     31  C   5SF A 803      83.176   2.867  12.030  1.00  0.00     0.039 C 
ENDBRANCH  26  29
ENDBRANCH  25  26
ENDBRANCH  24  25
ENDBRANCH  13  24
ENDBRANCH   7  13
BRANCH   5  32
ATOM     32  C13 5SF A 803      85.257   1.143   6.841  1.00  0.00     0.026 A 
ATOM     33  C14 5SF A 803      85.117   0.518   5.599  1.00  0.00     0.122 A 
ATOM     34  N4  5SF A 803      84.060   0.961   4.936  1.00  0.00    -0.310 N 
ATOM     35  N5  5SF A 803      83.502   1.904   5.764  1.00  0.00    -0.307 N 
ATOM     36  H4  5SF A 803      83.733   0.668   4.015  1.00  0.00     0.186 HD
ATOM     37  C15 5SF A 803      84.207   2.020   6.897  1.00  0.00     0.124 A 
ATOM     38  C16 5SF A 803      82.299   2.636   5.386  1.00  0.00     0.177 C 
ENDBRANCH   5  32
TORSDOF 9
ENDMDL
MODEL 2
REMARK VINA RESULT:    -6.036      0.494      2.124
REMARK INTER + INTRA:          -9.619
REMARK INTER:                  -9.167
REMARK INTRA:                  -0.452
REMARK UNBOUND:                -0.408
REMARK  9 active torsions:
REMARK  status: ('A' for Active; 'I' for Inactive)
REMARK    1  A    between atoms: C1_1  and  N_26 
REMARK    2  A    between atoms: C3_3  and  C4_25 
REMARK    3  A    between atoms: C3_3  and  N_26 
REMARK    4  A    between atoms: C11_8  and  C13_10 
REMARK    5  A    between atoms: C19_14  and  O1_19 
REMARK    6  A    between atoms: C21_16  and  O_21 
REMARK    7  A    between atoms: C17_23  and  N1_24 
REMARK    8  A    between atoms: N1_24  and  C5_28 
REMARK    9  A    between atoms: N1_24  and  C4_25 
ROOT
ATOM      1  C7  5SF A 803      88.913   0.005  11.099  1.00  0.00     0.034 A 
ATOM      2  C8  5SF A 803      88.081   0.259   9.989  1.00  0.00     0.059 A 
ATOM      3  C9  5SF A 803      87.200   1.356  10.029  1.00  0.00     0.061 A 
ATOM      4  C10 5SF A 803      87.212   2.218  11.145  1.00  0.00     0.061 A 
ATOM      5  C11 5SF A 803      86.329   0.711   8.004  1.00  0.00     0.061 A 
ATOM      6  C12 5SF A 803      87.215  -0.367   7.964  1.00  0.00     0.119 A 
ATOM      7  C5  5SF A 803      88.054   1.955  12.239  1.00  0.00     0.037 A 
ATOM      8  N2  5SF A 803      86.312   1.572   9.010  1.00  0.00    -0.352 N 
ATOM      9  H2  5SF A 803      85.665   2.361   9.025  1.00  0.00     0.166 HD
ATOM     10  N3  5SF A 803      88.093  -0.599   8.920  1.00  0.00    -0.362 N 
ATOM     11  H3  5SF A 803      88.748  -1.379   8.868  1.00  0.00     0.165 HD
ATOM     12  C6  5SF A 803      88.897   0.831  12.185  1.00  0.00     0.032 A 
ENDROOT
BRANCH   7  13
ATOM     13  N1  5SF A 803      87.982   2.749  13.412  1.00  0.00    -0.345 N 
BRANCH  13  14
ATOM     14  C17 5SF A 803      88.679   2.341  14.582  1.00  0.00     0.040 A 
ATOM     15  C22 5SF A 803      89.898   2.949  14.881  1.00  0.00     0.066 A 
ATOM     16  C21 5SF A 803      90.634   2.486  15.961  1.00  0.00     0.073 A 
ATOM     17  C20 5SF A 803      90.171   1.441  16.745  1.00  0.00     0.073 A 
ATOM     18  C19 5SF A 803      88.961   0.841  16.430  1.00  0.00     0.073 A 
ATOM     19  C18 5SF A 803      88.188   1.302  15.372  1.00  0.00     0.066 A 
BRANCH  16  20
ATOM     20  O   5SF A 803      91.818   3.157  16.141  1.00  0.00    -0.356 OA
ATOM     21  C23 5SF A 803      92.405   3.176  17.435  1.00  0.00     0.210 C 
ENDBRANCH  16  20
BRANCH  18  22
ATOM     22  O1  5SF A 803      88.414  -0.210  17.124  1.00  0.00    -0.356 OA
ATOM     23  C24 5SF A 803      89.057  -0.692  18.297  1.00  0.00     0.210 C 
ENDBRANCH  18  22
ENDBRANCH  13  14
BRANCH  13  24
ATOM     24  C4  5SF A 803      86.992   3.823  13.608  1.00  0.00     0.157 C 
BRANCH  24  25
ATOM     25  C3  5SF A 803      85.668   3.159  13.955  1.00  0.00     0.253 C 
BRANCH  25  26
ATOM     26  N   5SF A 803      84.532   4.024  13.594  1.00  0.00    -0.070 N 
ATOM     27  H   5SF A 803      84.769   4.523  12.737  1.00  0.00     0.277 HD
ATOM     28  H   5SF A 803      84.377   4.652  14.383  1.00  0.00     0.277 HD
BRANCH  26  29
ATOM     29  C1  5SF A 803      83.269   3.292  13.373  1.00  0.00     0.178 C 
ATOM     30  C2  5SF A 803      83.219   2.098  14.299  1.00  0.00     0.039 C 
ATOM     31  C   5SF A 803      83.122   2.887  11.930  1.00  0.00     0.039 C 
ENDBRANCH  26  29
ENDBRANCH  25  26
ENDBRANCH  24  25
ENDBRANCH  13  24
ENDBRANCH   7  13
BRANCH   5  32
ATOM     32  C13 5SF A 803      85.369   0.963   6.901  1.00  0.00     0.026 A 
ATOM     33  C14 5SF A 803      84.470   2.025   6.766  1.00  0.00     0.122 A 
ATOM     34  N4  5SF A 803      83.864   2.017   5.589  1.00  0.00    -0.310 N 
ATOM     35  N5  5SF A 803      84.377   0.918   4.943  1.00  0.00    -0.307 N 
ATOM     36  H4  5SF A 803      83.172   2.679   5.239  1.00  0.00     0.186 HD
ATOM     37  C15 5SF A 803      85.269   0.286   5.716  1.00  0.00     0.124 A 
ATOM     38  C16 5SF A 803      83.953   0.558   3.595  1.00  0.00     0.177 C 
ENDBRANCH   5  32
TORSDOF 9
ENDMDL
MODEL 3
REMARK VINA RESULT:    -5.483      2.196      4.869
REMARK INTER + INTRA:          -8.776
REMARK INTER:                  -8.171
REMARK INTRA:                  -0.605
REMARK UNBOUND:                -0.408
REMARK  9 active torsions:
REMARK  status: ('A' for Active; 'I' for Inactive)
REMARK    1  A    between atoms: C1_1  and  N_26 
REMARK    2  A    between atoms: C3_3  and  C4_25 
REMARK    3  A    between atoms: C3_3  and  N_26 
REMARK    4  A    between atoms: C11_8  and  C13_10 
REMARK    5  A    between atoms: C19_14  and  O1_19 
REMARK    6  A    between atoms: C21_16  and  O_21 
REMARK    7  A    between atoms: C17_23  and  N1_24 
REMARK    8  A    between atoms: N1_24  and  C5_28 
REMARK    9  A    between atoms: N1_24  and  C4_25 
ROOT
ATOM      1  C7  5SF A 803      87.901  -0.255   9.154  1.00  0.00     0.034 A 
ATOM      2  C8  5SF A 803      86.938   0.254   8.259  1.00  0.00     0.059 A 
ATOM      3  C9  5SF A 803      86.123   1.327   8.666  1.00  0.00     0.061 A 
ATOM      4  C10 5SF A 803      86.328   1.917   9.931  1.00  0.00     0.061 A 
ATOM      5  C11 5SF A 803      84.955   1.168   6.695  1.00  0.00     0.061 A 
ATOM      6  C12 5SF A 803      85.775   0.113   6.292  1.00  0.00     0.119 A 
ATOM      7  C5  5SF A 803      87.298   1.401  10.808  1.00  0.00     0.037 A 
ATOM      8  N2  5SF A 803      85.116   1.780   7.858  1.00  0.00    -0.352 N 
ATOM      9  H2  5SF A 803      84.515   2.555   8.139  1.00  0.00     0.166 HD
ATOM     10  N3  5SF A 803      86.764  -0.342   7.037  1.00  0.00    -0.362 N 
ATOM     11  H3  5SF A 803      87.369  -1.100   6.720  1.00  0.00     0.165 HD
ATOM     12  C6  5SF A 803      88.073   0.305  10.387  1.00  0.00     0.032 A 
ENDROOT
BRANCH   7  13
ATOM     13  N1  5SF A 803      87.425   1.912  12.125  1.00  0.00    -0.345 N 
BRANCH  13  14
ATOM     14  C17 5SF A 803      86.440   2.802  12.632  1.00  0.00     0.040 A 
ATOM     15  C22 5SF A 803      86.848   4.036  13.136  1.00  0.00     0.066 A 
ATOM     16  C21 5SF A 803      85.908   4.866  13.727  1.00  0.00     0.073 A 
ATOM     17  C20 5SF A 803      84.577   4.489  13.814  1.00  0.00     0.073 A 
ATOM     18  C19 5SF A 803      84.188   3.255  13.316  1.00  0.00     0.073 A 
ATOM     19  C18 5SF A 803      85.101   2.415  12.692  1.00  0.00     0.066 A 
BRANCH  16  20
ATOM     20  O   5SF A 803      86.438   6.042  14.196  1.00  0.00    -0.356 OA
ATOM     21  C23 5SF A 803      86.892   6.103  15.541  1.00  0.00     0.210 C 
ENDBRANCH  16  20
BRANCH  18  22
ATOM     22  O1  5SF A 803      82.903   2.771  13.361  1.00  0.00    -0.356 OA
ATOM     23  C24 5SF A 803      82.161   2.624  12.157  1.00  0.00     0.210 C 
ENDBRANCH  18  22
ENDBRANCH  13  14
BRANCH  13  24
ATOM     24  C4  5SF A 803      88.666   1.825  12.915  1.00  0.00     0.157 C 
BRANCH  24  25
ATOM     25  C3  5SF A 803      88.409   0.851  14.054  1.00  0.00     0.253 C 
BRANCH  25  26
ATOM     26  N   5SF A 803      88.398   1.547  15.352  1.00  0.00    -0.070 N 
ATOM     27  H   5SF A 803      87.624   1.180  15.906  1.00  0.00     0.277 HD
ATOM     28  H   5SF A 803      88.300   2.542  15.152  1.00  0.00     0.277 HD
BRANCH  26  29
ATOM     29  C1  5SF A 803      89.643   1.385  16.129  1.00  0.00     0.178 C 
ATOM     30  C2  5SF A 803      89.345   0.601  17.388  1.00  0.00     0.039 C 
ATOM     31  C   5SF A 803      90.268   2.719  16.437  1.00  0.00     0.039 C 
ENDBRANCH  26  29
ENDBRANCH  25  26
ENDBRANCH  24  25
ENDBRANCH  13  24
ENDBRANCH   7  13
BRANCH   5  32
ATOM     32  C13 5SF A 803      83.866   1.676   5.824  1.00  0.00     0.026 A 
ATOM     33  C14 5SF A 803      83.389   1.128   4.631  1.00  0.00     0.122 A 
ATOM     34  N4  5SF A 803      82.312   1.759   4.189  1.00  0.00    -0.310 N 
ATOM     35  N5  5SF A 803      82.087   2.749   5.114  1.00  0.00    -0.307 N 
ATOM     36  H4  5SF A 803      81.771   1.556   3.348  1.00  0.00     0.186 HD
ATOM     37  C15 5SF A 803      83.005   2.708   6.088  1.00  0.00     0.124 A 
ATOM     38  C16 5SF A 803      80.971   3.678   4.982  1.00  0.00     0.177 C 
ENDBRANCH   5  32
TORSDOF 9
ENDMDL
MODEL 4
REMARK VINA RESULT:    -5.462      0.471      2.077
REMARK INTER + INTRA:          -8.743
REMARK INTER:                  -8.618
REMARK INTRA:                  -0.125
REMARK UNBOUND:                -0.408
REMARK  9 active torsions:
REMARK  status: ('A' for Active; 'I' for Inactive)
REMARK    1  A    between atoms: C1_1  and  N_26 
REMARK    2  A    between atoms: C3_3  and  C4_25 
REMARK    3  A    between atoms: C3_3  and  N_26 
REMARK    4  A    between atoms: C11_8  and  C13_10 
REMARK    5  A    between atoms: C19_14  and  O1_19 
REMARK    6  A    between atoms: C21_16  and  O_21 
REMARK    7  A    between atoms: C17_23  and  N1_24 
REMARK    8  A    between atoms: N1_24  and  C5_28 
REMARK    9  A    between atoms: N1_24  and  C4_25 
ROOT
ATOM      1  C7  5SF A 803      88.948   0.122  10.885  1.00  0.00     0.034 A 
ATOM      2  C8  5SF A 803      88.070   0.329   9.801  1.00  0.00     0.059 A 
ATOM      3  C9  5SF A 803      87.088   1.331   9.896  1.00  0.00     0.061 A 
ATOM      4  C10 5SF A 803      87.041   2.155  11.041  1.00  0.00     0.061 A 
ATOM      5  C11 5SF A 803      86.237   0.670   7.868  1.00  0.00     0.061 A 
ATOM      6  C12 5SF A 803      87.223  -0.315   7.774  1.00  0.00     0.119 A 
ATOM      7  C5  5SF A 803      87.930   1.940  12.108  1.00  0.00     0.037 A 
ATOM      8  N2  5SF A 803      86.159   1.492   8.903  1.00  0.00    -0.352 N 
ATOM      9  H2  5SF A 803      85.439   2.212   8.958  1.00  0.00     0.166 HD
ATOM     10  N3  5SF A 803      88.141  -0.490   8.704  1.00  0.00    -0.362 N 
ATOM     11  H3  5SF A 803      88.868  -1.199   8.611  1.00  0.00     0.165 HD
ATOM     12  C6  5SF A 803      88.878   0.907  11.999  1.00  0.00     0.032 A 
ENDROOT
BRANCH   7  13
ATOM     13  N1  5SF A 803      87.808   2.685  13.309  1.00  0.00    -0.345 N 
BRANCH  13  14
ATOM     14  C17 5SF A 803      88.535   2.284  14.463  1.00  0.00     0.040 A 
ATOM     15  C22 5SF A 803      89.760   2.894  14.728  1.00  0.00     0.066 A 
ATOM     16  C21 5SF A 803      90.523   2.437  15.792  1.00  0.00     0.073 A 
ATOM     17  C20 5SF A 803      90.080   1.396  16.593  1.00  0.00     0.073 A 
ATOM     18  C19 5SF A 803      88.862   0.795  16.311  1.00  0.00     0.073 A 
ATOM     19  C18 5SF A 803      88.063   1.250  15.271  1.00  0.00     0.066 A 
BRANCH  16  20
ATOM     20  O   5SF A 803      91.711   3.108  15.938  1.00  0.00    -0.356 OA
ATOM     21  C23 5SF A 803      92.363   3.080  17.201  1.00  0.00     0.210 C 
ENDBRANCH  16  20
BRANCH  18  22
ATOM     22  O1  5SF A 803      88.332  -0.252  17.025  1.00  0.00    -0.356 OA
ATOM     23  C24 5SF A 803      89.031  -0.761  18.155  1.00  0.00     0.210 C 
ENDBRANCH  18  22
ENDBRANCH  13  14
BRANCH  13  24
ATOM     24  C4  5SF A 803      86.749   3.683  13.543  1.00  0.00     0.157 C 
BRANCH  24  25
ATOM     25  C3  5SF A 803      85.483   2.921  13.905  1.00  0.00     0.253 C 
BRANCH  25  26
ATOM     26  N   5SF A 803      84.496   2.988  12.814  1.00  0.00    -0.070 N 
ATOM     27  H   5SF A 803      84.693   2.233  12.157  1.00  0.00     0.277 HD
ATOM     28  H   5SF A 803      84.586   3.911  12.390  1.00  0.00     0.277 HD
BRANCH  26  29
ATOM     29  C1  5SF A 803      83.096   2.859  13.265  1.00  0.00     0.178 C 
ATOM     30  C2  5SF A 803      82.173   3.070  12.086  1.00  0.00     0.039 C 
ATOM     31  C   5SF A 803      82.796   3.816  14.388  1.00  0.00     0.039 C 
ENDBRANCH  26  29
ENDBRANCH  25  26
ENDBRANCH  24  25
ENDBRANCH  13  24
ENDBRANCH   7  13
BRANCH   5  32
ATOM     32  C13 5SF A 803      85.232   0.861   6.794  1.00  0.00     0.026 A 
ATOM     33  C14 5SF A 803      85.149   0.205   5.563  1.00  0.00     0.122 A 
ATOM     34  N4  5SF A 803      84.042   0.518   4.906  1.00  0.00    -0.310 N 
ATOM     35  N5  5SF A 803      83.392   1.406   5.727  1.00  0.00    -0.307 N 
ATOM     36  H4  5SF A 803      83.741   0.175   3.993  1.00  0.00     0.186 HD
ATOM     37  C15 5SF A 803      84.091   1.618   6.849  1.00  0.00     0.124 A 
ATOM     38  C16 5SF A 803      82.112   1.995   5.352  1.00  0.00     0.177 C 
ENDBRANCH   5  32
TORSDOF 9
ENDMDL
MODEL 5
REMARK VINA RESULT:    -5.078      2.291      4.665
REMARK INTER + INTRA:          -8.157
REMARK INTER:                  -7.663
REMARK INTRA:                  -0.494
REMARK UNBOUND:                -0.408
REMARK  9 active torsions:
REMARK  status: ('A' for Active; 'I' for Inactive)
REMARK    1  A    between atoms: C1_1  and  N_26 
REMARK    2  A    between atoms: C3_3  and  C4_25 
REMARK    3  A    between atoms: C3_3  and  N_26 
REMARK    4  A    between atoms: C11_8  and  C13_10 
REMARK    5  A    between atoms: C19_14  and  O1_19 
REMARK    6  A    between atoms: C21_16  and  O_21 
REMARK    7  A    between atoms: C17_23  and  N1_24 
REMARK    8  A    between atoms: N1_24  and  C5_28 
REMARK    9  A    between atoms: N1_24  and  C4_25 
ROOT
ATOM      1  C7  5SF A 803      87.694   0.427   9.031  1.00  0.00     0.034 A 
ATOM      2  C8  5SF A 803      86.582   0.873   8.288  1.00  0.00     0.059 A 
ATOM      3  C9  5SF A 803      85.666   1.757   8.888  1.00  0.00     0.061 A 
ATOM      4  C10 5SF A 803      85.910   2.232  10.194  1.00  0.00     0.061 A 
ATOM      5  C11 5SF A 803      84.340   1.630   7.018  1.00  0.00     0.061 A 
ATOM      6  C12 5SF A 803      85.259   0.764   6.422  1.00  0.00     0.119 A 
ATOM      7  C5  5SF A 803      87.028   1.782  10.917  1.00  0.00     0.037 A 
ATOM      8  N2  5SF A 803      84.527   2.132   8.229  1.00  0.00    -0.352 N 
ATOM      9  H2  5SF A 803      83.852   2.770   8.650  1.00  0.00     0.166 HD
ATOM     10  N3  5SF A 803      86.373   0.391   7.021  1.00  0.00    -0.362 N 
ATOM     11  H3  5SF A 803      87.046  -0.225   6.566  1.00  0.00     0.165 HD
ATOM     12  C6  5SF A 803      87.906   0.872  10.303  1.00  0.00     0.032 A 
ENDROOT
BRANCH   7  13
ATOM     13  N1  5SF A 803      87.212   2.163  12.271  1.00  0.00    -0.345 N 
BRANCH  13  14
ATOM     14  C17 5SF A 803      86.204   2.914  12.935  1.00  0.00     0.040 A 
ATOM     15  C22 5SF A 803      84.900   2.421  12.945  1.00  0.00     0.066 A 
ATOM     16  C21 5SF A 803      83.892   3.196  13.498  1.00  0.00     0.073 A 
ATOM     17  C20 5SF A 803      84.166   4.439  14.046  1.00  0.00     0.073 A 
ATOM     18  C19 5SF A 803      85.467   4.918  14.021  1.00  0.00     0.073 A 
ATOM     19  C18 5SF A 803      86.503   4.153  13.499  1.00  0.00     0.066 A 
BRANCH  16  20
ATOM     20  O   5SF A 803      82.654   2.607  13.434  1.00  0.00    -0.356 OA
ATOM     21  C23 5SF A 803      81.965   2.594  12.191  1.00  0.00     0.210 C 
ENDBRANCH  16  20
BRANCH  18  22
ATOM     22  O1  5SF A 803      85.852   6.140  14.518  1.00  0.00    -0.356 OA
ATOM     23  C24 5SF A 803      87.063   6.253  15.254  1.00  0.00     0.210 C 
ENDBRANCH  18  22
ENDBRANCH  13  14
BRANCH  13  24
ATOM     24  C4  5SF A 803      88.510   2.094  12.966  1.00  0.00     0.157 C 
BRANCH  24  25
ATOM     25  C3  5SF A 803      88.408   0.989  14.006  1.00  0.00     0.253 C 
BRANCH  25  26
ATOM     26  N   5SF A 803      88.322   1.549  15.365  1.00  0.00    -0.070 N 
ATOM     27  H   5SF A 803      87.571   1.070  15.862  1.00  0.00     0.277 HD
ATOM     28  H   5SF A 803      88.149   2.549  15.262  1.00  0.00     0.277 HD
BRANCH  26  29
ATOM     29  C1  5SF A 803      89.564   1.408  16.151  1.00  0.00     0.178 C 
ATOM     30  C2  5SF A 803      89.286   0.561  17.372  1.00  0.00     0.039 C 
ATOM     31  C   5SF A 803      90.129   2.753  16.521  1.00  0.00     0.039 C 
ENDBRANCH  26  29
ENDBRANCH  25  26
ENDBRANCH  24  25
ENDBRANCH  13  24
ENDBRANCH   7  13
BRANCH   5  32
ATOM     32  C13 5SF A 803      83.106   2.053   6.309  1.00  0.00     0.026 A 
ATOM     33  C14 5SF A 803      82.281   3.144   6.593  1.00  0.00     0.122 A 
ATOM     34  N4  5SF A 803      81.344   3.312   5.671  1.00  0.00    -0.310 N 
ATOM     35  N5  5SF A 803      81.561   2.299   4.769  1.00  0.00    -0.307 N 
ATOM     36  H4  5SF A 803      80.622   4.032   5.639  1.00  0.00     0.186 HD
ATOM     37  C15 5SF A 803      82.604   1.546   5.140  1.00  0.00     0.124 A 
ATOM     38  C16 5SF A 803      80.723   2.137   3.587  1.00  0.00     0.177 C 
ENDBRANCH   5  32
TORSDOF 9
ENDMDL
MODEL 6
REMARK VINA RESULT:    -4.756      2.026      4.883
REMARK INTER + INTRA:          -7.666
REMARK INTER:                  -6.872
REMARK INTRA:                  -0.793
REMARK UNBOUND:                -0.408
REMARK  9 active torsions:
REMARK  status: ('A' for Active; 'I' for Inactive)
REMARK    1  A    between atoms: C1_1  and  N_26 
REMARK    2  A    between atoms: C3_3  and  C4_25 
REMARK    3  A    between atoms: C3_3  and  N_26 
REMARK    4  A    between atoms: C11_8  and  C13_10 
REMARK    5  A    between atoms: C19_14  and  O1_19 
REMARK    6  A    between atoms: C21_16  and  O_21 
REMARK    7  A    between atoms: C17_23  and  N1_24 
REMARK    8  A    between atoms: N1_24  and  C5_28 
REMARK    9  A    between atoms: N1_24  and  C4_25 
ROOT
ATOM      1  C7  5SF A 803      86.038   5.297  14.029  1.00  0.00     0.034 A 
ATOM      2  C8  5SF A 803      85.060   5.152  13.023  1.00  0.00     0.059 A 
ATOM      3  C9  5SF A 803      85.176   4.096  12.102  1.00  0.00     0.061 A 
ATOM      4  C10 5SF A 803      86.226   3.163  12.239  1.00  0.00     0.061 A 
ATOM      5  C11 5SF A 803      83.352   4.906  10.966  1.00  0.00     0.061 A 
ATOM      6  C12 5SF A 803      83.234   5.945  11.892  1.00  0.00     0.119 A 
ATOM      7  C5  5SF A 803      87.188   3.319  13.251  1.00  0.00     0.037 A 
ATOM      8  N2  5SF A 803      84.298   3.985  11.057  1.00  0.00    -0.352 N 
ATOM      9  H2  5SF A 803      84.369   3.226  10.379  1.00  0.00     0.166 HD
ATOM     10  N3  5SF A 803      84.053   6.076  12.917  1.00  0.00    -0.362 N 
ATOM     11  H3  5SF A 803      83.942   6.828  13.598  1.00  0.00     0.165 HD
ATOM     12  C6  5SF A 803      87.065   4.405  14.136  1.00  0.00     0.032 A 
ENDROOT
BRANCH   7  13
ATOM     13  N1  5SF A 803      88.311   2.455  13.318  1.00  0.00    -0.345 N 
BRANCH  13  14
ATOM     14  C17 5SF A 803      88.896   2.158  14.579  1.00  0.00     0.040 A 
ATOM     15  C22 5SF A 803      90.068   2.820  14.946  1.00  0.00     0.066 A 
ATOM     16  C21 5SF A 803      90.701   2.462  16.125  1.00  0.00     0.073 A 
ATOM     17  C20 5SF A 803      90.183   1.469  16.942  1.00  0.00     0.073 A 
ATOM     18  C19 5SF A 803      89.021   0.815  16.559  1.00  0.00     0.073 A 
ATOM     19  C18 5SF A 803      88.348   1.172  15.398  1.00  0.00     0.066 A 
BRANCH  16  20
ATOM     20  O   5SF A 803      91.850   3.175  16.366  1.00  0.00    -0.356 OA
ATOM     21  C23 5SF A 803      92.398   3.170  17.677  1.00  0.00     0.210 C 
ENDBRANCH  16  20
BRANCH  18  22
ATOM     22  O1  5SF A 803      88.427  -0.193  17.279  1.00  0.00    -0.356 OA
ATOM     23  C24 5SF A 803      89.079  -0.718  18.429  1.00  0.00     0.210 C 
ENDBRANCH  18  22
ENDBRANCH  13  14
BRANCH  13  24
ATOM     24  C4  5SF A 803      89.112   2.070  12.142  1.00  0.00     0.157 C 
BRANCH  24  25
ATOM     25  C3  5SF A 803      88.373   0.938  11.444  1.00  0.00     0.253 C 
BRANCH  25  26
ATOM     26  N   5SF A 803      88.245   1.201  10.001  1.00  0.00    -0.070 N 
ATOM     27  H   5SF A 803      89.050   0.792   9.528  1.00  0.00     0.277 HD
ATOM     28  H   5SF A 803      88.196   2.214   9.889  1.00  0.00     0.277 HD
BRANCH  26  29
ATOM     29  C1  5SF A 803      87.018   0.643   9.398  1.00  0.00     0.178 C 
ATOM     30  C2  5SF A 803      87.400  -0.392   8.363  1.00  0.00     0.039 C 
ATOM     31  C   5SF A 803      86.159   1.731   8.810  1.00  0.00     0.039 C 
ENDBRANCH  26  29
ENDBRANCH  25  26
ENDBRANCH  24  25
ENDBRANCH  13  24
ENDBRANCH   7  13
BRANCH   5  32
ATOM     32  C13 5SF A 803      82.400   4.768   9.836  1.00  0.00     0.026 A 
ATOM     33  C14 5SF A 803      81.213   5.472   9.617  1.00  0.00     0.122 A 
ATOM     34  N4  5SF A 803      80.684   5.199   8.434  1.00  0.00    -0.310 N 
ATOM     35  N5  5SF A 803      81.544   4.287   7.872  1.00  0.00    -0.307 N 
ATOM     36  H4  5SF A 803      79.827   5.580   8.030  1.00  0.00     0.186 HD
ATOM     37  C15 5SF A 803      82.565   4.024   8.698  1.00  0.00     0.124 A 
ATOM     38  C16 5SF A 803      81.305   3.729   6.546  1.00  0.00     0.177 C 
ENDBRANCH   5  32
TORSDOF 9
ENDMDL
MODEL 7
REMARK VINA RESULT:    -4.721      3.347      8.489
REMARK INTER + INTRA:          -7.613
REMARK INTER:                  -6.968
REMARK INTRA:                  -0.645
REMARK UNBOUND:                -0.408
REMARK  9 active torsions:
REMARK  status: ('A' for Active; 'I' for Inactive)
REMARK    1  A    between atoms: C1_1  and  N_26 
REMARK    2  A    between atoms: C3_3  and  C4_25 
REMARK    3  A    between atoms: C3_3  and  N_26 
REMARK    4  A    between atoms: C11_8  and  C13_10 
REMARK    5  A    between atoms: C19_14  and  O1_19 
REMARK    6  A    between atoms: C21_16  and  O_21 
REMARK    7  A    between atoms: C17_23  and  N1_24 
REMARK    8  A    between atoms: N1_24  and  C5_28 
REMARK    9  A    between atoms: N1_24  and  C4_25 
ROOT
ATOM      1  C7  5SF A 803      84.974   5.269  11.745  1.00  0.00     0.034 A 
ATOM      2  C8  5SF A 803      85.954   4.660  12.556  1.00  0.00     0.059 A 
ATOM      3  C9  5SF A 803      86.367   3.347  12.264  1.00  0.00     0.061 A 
ATOM      4  C10 5SF A 803      85.845   2.689  11.130  1.00  0.00     0.061 A 
ATOM      5  C11 5SF A 803      87.674   3.354  14.151  1.00  0.00     0.061 A 
ATOM      6  C12 5SF A 803      87.272   4.661  14.428  1.00  0.00     0.119 A 
ATOM      7  C5  5SF A 803      84.875   3.314  10.328  1.00  0.00     0.037 A 
ATOM      8  N2  5SF A 803      87.243   2.694  13.088  1.00  0.00    -0.352 N 
ATOM      9  H2  5SF A 803      87.550   1.741  12.891  1.00  0.00     0.166 HD
ATOM     10  N3  5SF A 803      86.440   5.326  13.651  1.00  0.00    -0.362 N 
ATOM     11  H3  5SF A 803      86.171   6.289  13.854  1.00  0.00     0.165 HD
ATOM     12  C6  5SF A 803      84.457   4.613  10.665  1.00  0.00     0.032 A 
ENDROOT
BRANCH   7  13
ATOM     13  N1  5SF A 803      84.261   2.612   9.259  1.00  0.00    -0.345 N 
BRANCH  13  14
ATOM     14  C17 5SF A 803      85.041   1.747   8.444  1.00  0.00     0.040 A 
ATOM     15  C22 5SF A 803      84.829   1.755   7.066  1.00  0.00     0.066 A 
ATOM     16  C21 5SF A 803      85.511   0.842   6.276  1.00  0.00     0.073 A 
ATOM     17  C20 5SF A 803      86.400  -0.062   6.834  1.00  0.00     0.073 A 
ATOM     18  C19 5SF A 803      86.594  -0.062   8.207  1.00  0.00     0.073 A 
ATOM     19  C18 5SF A 803      85.948   0.859   9.022  1.00  0.00     0.066 A 
BRANCH  16  20
ATOM     20  O   5SF A 803      85.204   0.941   4.941  1.00  0.00    -0.356 OA
ATOM     21  C23 5SF A 803      85.577  -0.119   4.072  1.00  0.00     0.210 C 
ENDBRANCH  16  20
BRANCH  18  22
ATOM     22  O1  5SF A 803      87.436  -0.921   8.870  1.00  0.00    -0.356 OA
ATOM     23  C24 5SF A 803      88.477  -0.400   9.687  1.00  0.00     0.210 C 
ENDBRANCH  18  22
ENDBRANCH  13  14
BRANCH  13  24
ATOM     24  C4  5SF A 803      82.922   2.936   8.737  1.00  0.00     0.157 C 
BRANCH  24  25
ATOM     25  C3  5SF A 803      81.905   2.379   9.721  1.00  0.00     0.253 C 
BRANCH  25  26
ATOM     26  N   5SF A 803      81.041   3.448  10.250  1.00  0.00    -0.070 N 
ATOM     27  H   5SF A 803      80.127   3.372   9.804  1.00  0.00     0.277 HD
ATOM     28  H   5SF A 803      81.506   4.333  10.044  1.00  0.00     0.277 HD
BRANCH  26  29
ATOM     29  C1  5SF A 803      80.850   3.394  11.713  1.00  0.00     0.178 C 
ATOM     30  C2  5SF A 803      80.930   4.796  12.276  1.00  0.00     0.039 C 
ATOM     31  C   5SF A 803      81.853   2.476  12.359  1.00  0.00     0.039 C 
ENDBRANCH  26  29
ENDBRANCH  25  26
ENDBRANCH  24  25
ENDBRANCH  13  24
ENDBRANCH   7  13
BRANCH   5  32
ATOM     32  C13 5SF A 803      88.632   2.638  15.030  1.00  0.00     0.026 A 
ATOM     33  C14 5SF A 803      88.887   1.266  15.092  1.00  0.00     0.122 A 
ATOM     34  N4  5SF A 803      89.907   0.984  15.887  1.00  0.00    -0.310 N 
ATOM     35  N5  5SF A 803      90.323   2.203  16.362  1.00  0.00    -0.307 N 
ATOM     36  H4  5SF A 803      90.297   0.065  16.100  1.00  0.00     0.186 HD
ATOM     37  C15 5SF A 803      89.571   3.191  15.860  1.00  0.00     0.124 A 
ATOM     38  C16 5SF A 803      91.445   2.321  17.286  1.00  0.00     0.177 C 
ENDBRANCH   5  32
TORSDOF 9
ENDMDL
MODEL 8
REMARK VINA RESULT:    -4.556      2.061      4.529
REMARK INTER + INTRA:          -7.361
REMARK INTER:                  -6.748
REMARK INTRA:                  -0.613
REMARK UNBOUND:                -0.408
REMARK  9 active torsions:
REMARK  status: ('A' for Active; 'I' for Inactive)
REMARK    1  A    between atoms: C1_1  and  N_26 
REMARK    2  A    between atoms: C3_3  and  C4_25 
REMARK    3  A    between atoms: C3_3  and  N_26 
REMARK    4  A    between atoms: C11_8  and  C13_10 
REMARK    5  A    between atoms: C19_14  and  O1_19 
REMARK    6  A    between atoms: C21_16  and  O_21 
REMARK    7  A    between atoms: C17_23  and  N1_24 
REMARK    8  A    between atoms: N1_24  and  C5_28 
REMARK    9  A    between atoms: N1_24  and  C4_25 
ROOT
ATOM      1  C7  5SF A 803      86.270   5.247  14.211  1.00  0.00     0.034 A 
ATOM      2  C8  5SF A 803      85.306   5.183  13.184  1.00  0.00     0.059 A 
ATOM      3  C9  5SF A 803      85.410   4.175  12.208  1.00  0.00     0.061 A 
ATOM      4  C10 5SF A 803      86.433   3.208  12.311  1.00  0.00     0.061 A 
ATOM      5  C11 5SF A 803      83.628   5.095  11.089  1.00  0.00     0.061 A 
ATOM      6  C12 5SF A 803      83.521   6.084  12.068  1.00  0.00     0.119 A 
ATOM      7  C5  5SF A 803      87.380   3.283  13.346  1.00  0.00     0.037 A 
ATOM      8  N2  5SF A 803      84.548   4.144  11.145  1.00  0.00    -0.352 N 
ATOM      9  H2  5SF A 803      84.611   3.422  10.428  1.00  0.00     0.166 HD
ATOM     10  N3  5SF A 803      84.325   6.138  13.112  1.00  0.00    -0.362 N 
ATOM     11  H3  5SF A 803      84.222   6.855  13.831  1.00  0.00     0.165 HD
ATOM     12  C6  5SF A 803      87.271   4.323  14.286  1.00  0.00     0.032 A 
ENDROOT
BRANCH   7  13
ATOM     13  N1  5SF A 803      88.479   2.387  13.384  1.00  0.00    -0.345 N 
BRANCH  13  14
ATOM     14  C17 5SF A 803      89.114   2.104  14.624  1.00  0.00     0.040 A 
ATOM     15  C22 5SF A 803      88.535   1.160  15.472  1.00  0.00     0.066 A 
ATOM     16  C21 5SF A 803      89.089   0.953  16.726  1.00  0.00     0.073 A 
ATOM     17  C20 5SF A 803      90.207   1.660  17.138  1.00  0.00     0.073 A 
ATOM     18  C19 5SF A 803      90.767   2.601  16.285  1.00  0.00     0.073 A 
ATOM     19  C18 5SF A 803      90.252   2.809  15.012  1.00  0.00     0.066 A 
BRANCH  16  20
ATOM     20  O   5SF A 803      88.420   0.013  17.468  1.00  0.00    -0.356 OA
ATOM     21  C23 5SF A 803      89.158  -0.801  18.370  1.00  0.00     0.210 C 
ENDBRANCH  16  20
BRANCH  18  22
ATOM     22  O1  5SF A 803      91.863   3.370  16.593  1.00  0.00    -0.356 OA
ATOM     23  C24 5SF A 803      92.589   3.117  17.790  1.00  0.00     0.210 C 
ENDBRANCH  18  22
ENDBRANCH  13  14
BRANCH  13  24
ATOM     24  C4  5SF A 803      89.212   1.948  12.182  1.00  0.00     0.157 C 
BRANCH  24  25
ATOM     25  C3  5SF A 803      88.388   0.851  11.526  1.00  0.00     0.253 C 
BRANCH  25  26
ATOM     26  N   5SF A 803      88.370   1.008  10.062  1.00  0.00    -0.070 N 
ATOM     27  H   5SF A 803      89.140   0.465   9.671  1.00  0.00     0.277 HD
ATOM     28  H   5SF A 803      88.457   2.006   9.871  1.00  0.00     0.277 HD
BRANCH  26  29
ATOM     29  C1  5SF A 803      87.114   0.558   9.428  1.00  0.00     0.178 C 
ATOM     30  C2  5SF A 803      87.445  -0.334   8.252  1.00  0.00     0.039 C 
ATOM     31  C   5SF A 803      86.263   1.730   9.017  1.00  0.00     0.039 C 
ENDBRANCH  26  29
ENDBRANCH  25  26
ENDBRANCH  24  25
ENDBRANCH  13  24
ENDBRANCH   7  13
BRANCH   5  32
ATOM     32  C13 5SF A 803      82.693   5.043   9.938  1.00  0.00     0.026 A 
ATOM     33  C14 5SF A 803      81.534   5.797   9.734  1.00  0.00     0.122 A 
ATOM     34  N4  5SF A 803      81.017   5.599   8.531  1.00  0.00    -0.310 N 
ATOM     35  N5  5SF A 803      81.856   4.686   7.939  1.00  0.00    -0.307 N 
ATOM     36  H4  5SF A 803      80.181   6.028   8.132  1.00  0.00     0.186 HD
ATOM     37  C15 5SF A 803      82.853   4.350   8.768  1.00  0.00     0.124 A 
ATOM     38  C16 5SF A 803      81.623   4.201   6.584  1.00  0.00     0.177 C 
ENDBRANCH   5  32
TORSDOF 9
ENDMDL
MODEL 9
REMARK VINA RESULT:    -4.554      4.100      9.138
REMARK INTER + INTRA:          -7.358
REMARK INTER:                  -6.582
REMARK INTRA:                  -0.776
REMARK UNBOUND:                -0.408
REMARK  9 active torsions:
REMARK  status: ('A' for Active; 'I' for Inactive)
REMARK    1  A    between atoms: C1_1  and  N_26 
REMARK    2  A    between atoms: C3_3  and  C4_25 
REMARK    3  A    between atoms: C3_3  and  N_26 
REMARK    4  A    between atoms: C11_8  and  C13_10 
REMARK    5  A    between atoms: C19_14  and  O1_19 
REMARK    6  A    between atoms: C21_16  and  O_21 
REMARK    7  A    between atoms: C17_23  and  N1_24 
REMARK    8  A    between atoms: N1_24  and  C5_28 
REMARK    9  A    between atoms: N1_24  and  C4_25 
ROOT
ATOM      1  C7  5SF A 803      86.226   2.137   9.128  1.00  0.00     0.034 A 
ATOM      2  C8  5SF A 803      86.795   2.026  10.414  1.00  0.00     0.059 A 
ATOM      3  C9  5SF A 803      86.047   2.438  11.532  1.00  0.00     0.061 A 
ATOM      4  C10 5SF A 803      84.722   2.890  11.356  1.00  0.00     0.061 A 
ATOM      5  C11 5SF A 803      87.861   2.027  12.879  1.00  0.00     0.061 A 
ATOM      6  C12 5SF A 803      88.594   1.607  11.767  1.00  0.00     0.119 A 
ATOM      7  C5  5SF A 803      84.169   2.986  10.068  1.00  0.00     0.037 A 
ATOM      8  N2  5SF A 803      86.605   2.434  12.782  1.00  0.00    -0.352 N 
ATOM      9  H2  5SF A 803      86.077   2.732  13.603  1.00  0.00     0.166 HD
ATOM     10  N3  5SF A 803      88.085   1.584  10.551  1.00  0.00    -0.362 N 
ATOM     11  H3  5SF A 803      88.626   1.255   9.750  1.00  0.00     0.165 HD
ATOM     12  C6  5SF A 803      84.953   2.601   8.967  1.00  0.00     0.032 A 
ENDROOT
BRANCH   7  13
ATOM     13  N1  5SF A 803      82.883   3.553   9.876  1.00  0.00    -0.345 N 
BRANCH  13  14
ATOM     14  C17 5SF A 803      82.327   3.612   8.569  1.00  0.00     0.040 A 
ATOM     15  C22 5SF A 803      82.133   2.422   7.869  1.00  0.00     0.066 A 
ATOM     16  C21 5SF A 803      81.690   2.477   6.557  1.00  0.00     0.073 A 
ATOM     17  C20 5SF A 803      81.431   3.692   5.941  1.00  0.00     0.073 A 
ATOM     18  C19 5SF A 803      81.637   4.867   6.648  1.00  0.00     0.073 A 
ATOM     19  C18 5SF A 803      82.052   4.842   7.973  1.00  0.00     0.066 A 
BRANCH  16  20
ATOM     20  O   5SF A 803      81.553   1.241   5.975  1.00  0.00    -0.356 OA
ATOM     21  C23 5SF A 803      81.863   1.095   4.596  1.00  0.00     0.210 C 
ENDBRANCH  16  20
BRANCH  18  22
ATOM     22  O1  5SF A 803      81.429   6.125   6.136  1.00  0.00    -0.356 OA
ATOM     23  C24 5SF A 803      82.282   6.618   5.110  1.00  0.00     0.210 C 
ENDBRANCH  18  22
ENDBRANCH  13  14
BRANCH  13  24
ATOM     24  C4  5SF A 803      82.190   4.362  10.895  1.00  0.00     0.157 C 
BRANCH  24  25
ATOM     25  C3  5SF A 803      80.980   3.566  11.358  1.00  0.00     0.253 C 
BRANCH  25  26
ATOM     26  N   5SF A 803      81.280   2.815  12.589  1.00  0.00    -0.070 N 
ATOM     27  H   5SF A 803      81.959   2.088  12.363  1.00  0.00     0.277 HD
ATOM     28  H   5SF A 803      80.396   2.435  12.927  1.00  0.00     0.277 HD
BRANCH  26  29
ATOM     29  C1  5SF A 803      81.834   3.646  13.677  1.00  0.00     0.178 C 
ATOM     30  C2  5SF A 803      82.697   2.783  14.570  1.00  0.00     0.039 C 
ATOM     31  C   5SF A 803      80.737   4.328  14.450  1.00  0.00     0.039 C 
ENDBRANCH  26  29
ENDBRANCH  25  26
ENDBRANCH  24  25
ENDBRANCH  13  24
ENDBRANCH   7  13
BRANCH   5  32
ATOM     32  C13 5SF A 803      88.450   2.017  14.241  1.00  0.00     0.026 A 
ATOM     33  C14 5SF A 803      88.830   3.110  15.024  1.00  0.00     0.122 A 
ATOM     34  N4  5SF A 803      89.187   2.746  16.247  1.00  0.00    -0.310 N 
ATOM     35  N5  5SF A 803      89.043   1.380  16.257  1.00  0.00    -0.307 N 
ATOM     36  H4  5SF A 803      89.499   3.346  17.010  1.00  0.00     0.186 HD
ATOM     37  C15 5SF A 803      88.608   0.938  15.070  1.00  0.00     0.124 A 
ATOM     38  C16 5SF A 803      89.343   0.590  17.445  1.00  0.00     0.177 C 
ENDBRANCH   5  32
TORSDOF 9
ENDMDL
MODEL 10
REMARK VINA RESULT:    -4.496      4.053      9.224
REMARK INTER + INTRA:          -7.269
REMARK INTER:                  -6.629
REMARK INTRA:                  -0.640
REMARK UNBOUND:                -0.408
REMARK  9 active torsions:
REMARK  status: ('A' for Active; 'I' for Inactive)
REMARK    1  A    between atoms: C1_1  and  N_26 
REMARK    2  A    between atoms: C3_3  and  C4_25 
REMARK    3  A    between atoms: C3_3  and  N_26 
REMARK    4  A    between atoms: C11_8  and  C13_10 
REMARK    5  A    between atoms: C19_14  and  O1_19 
REMARK    6  A    between atoms: C21_16  and  O_21 
REMARK    7  A    between atoms: C17_23  and  N1_24 
REMARK    8  A    between atoms: N1_24  and  C5_28 
REMARK    9  A    between atoms: N1_24  and  C4_25 
ROOT
ATOM      1  C7  5SF A 803      86.529   1.834   9.262  1.00  0.00     0.034 A 
ATOM      2  C8  5SF A 803      87.117   1.791  10.543  1.00  0.00     0.059 A 
ATOM      3  C9  5SF A 803      86.382   2.252  11.651  1.00  0.00     0.061 A 
ATOM      4  C10 5SF A 803      85.050   2.683  11.472  1.00  0.00     0.061 A 
ATOM      5  C11 5SF A 803      88.219   1.921  12.988  1.00  0.00     0.061 A 
ATOM      6  C12 5SF A 803      88.939   1.453  11.888  1.00  0.00     0.119 A 
ATOM      7  C5  5SF A 803      84.478   2.712  10.189  1.00  0.00     0.037 A 
ATOM      8  N2  5SF A 803      86.958   2.313  12.891  1.00  0.00    -0.352 N 
ATOM      9  H2  5SF A 803      86.439   2.646  13.703  1.00  0.00     0.166 HD
ATOM     10  N3  5SF A 803      88.413   1.367  10.682  1.00  0.00    -0.362 N 
ATOM     11  H3  5SF A 803      88.945   1.003   9.891  1.00  0.00     0.165 HD
ATOM     12  C6  5SF A 803      85.250   2.279   9.097  1.00  0.00     0.032 A 
ENDROOT
BRANCH   7  13
ATOM     13  N1  5SF A 803      83.184   3.258   9.989  1.00  0.00    -0.345 N 
BRANCH  13  14
ATOM     14  C17 5SF A 803      82.662   3.366   8.671  1.00  0.00     0.040 A 
ATOM     15  C22 5SF A 803      82.305   4.627   8.194  1.00  0.00     0.066 A 
ATOM     16  C21 5SF A 803      81.699   4.728   6.951  1.00  0.00     0.073 A 
ATOM     17  C20 5SF A 803      81.456   3.602   6.181  1.00  0.00     0.073 A 
ATOM     18  C19 5SF A 803      81.810   2.355   6.673  1.00  0.00     0.073 A 
ATOM     19  C18 5SF A 803      82.445   2.224   7.901  1.00  0.00     0.066 A 
BRANCH  16  20
ATOM     20  O   5SF A 803      81.383   6.018   6.603  1.00  0.00    -0.356 OA
ATOM     21  C23 5SF A 803      82.036   6.606   5.486  1.00  0.00     0.210 C 
ENDBRANCH  16  20
BRANCH  18  22
ATOM     22  O1  5SF A 803      81.603   1.172   6.006  1.00  0.00    -0.356 OA
ATOM     23  C24 5SF A 803      81.495   1.171   4.588  1.00  0.00     0.210 C 
ENDBRANCH  18  22
ENDBRANCH  13  14
BRANCH  13  24
ATOM     24  C4  5SF A 803      82.447   4.004  11.025  1.00  0.00     0.157 C 
BRANCH  24  25
ATOM     25  C3  5SF A 803      81.273   3.137  11.455  1.00  0.00     0.253 C 
BRANCH  25  26
ATOM     26  N   5SF A 803      81.580   2.411  12.699  1.00  0.00    -0.070 N 
ATOM     27  H   5SF A 803      82.213   1.643  12.473  1.00  0.00     0.277 HD
ATOM     28  H   5SF A 803      80.691   2.087  13.080  1.00  0.00     0.277 HD
BRANCH  26  29
ATOM     29  C1  5SF A 803      82.214   3.246  13.739  1.00  0.00     0.178 C 
ATOM     30  C2  5SF A 803      82.915   2.350  14.735  1.00  0.00     0.039 C 
ATOM     31  C   5SF A 803      81.205   4.141  14.406  1.00  0.00     0.039 C 
ENDBRANCH  26  29
ENDBRANCH  25  26
ENDBRANCH  24  25
ENDBRANCH  13  24
ENDBRANCH   7  13
BRANCH   5  32
ATOM     32  C13 5SF A 803      88.827   1.983  14.341  1.00  0.00     0.026 A 
ATOM     33  C14 5SF A 803      89.486   3.059  14.941  1.00  0.00     0.122 A 
ATOM     34  N4  5SF A 803      89.779   2.817  16.210  1.00  0.00    -0.310 N 
ATOM     35  N5  5SF A 803      89.305   1.549  16.439  1.00  0.00    -0.307 N 
ATOM     36  H4  5SF A 803      90.251   3.435  16.870  1.00  0.00     0.186 HD
ATOM     37  C15 5SF A 803      88.740   1.045  15.335  1.00  0.00     0.124 A 
ATOM     38  C16 5SF A 803      89.437   0.908  17.742  1.00  0.00     0.177 C 
ENDBRANCH   5  32
TORSDOF 9
ENDMDL
MODEL 11
REMARK VINA RESULT:    -4.305      3.380      8.729
REMARK INTER + INTRA:          -6.978
REMARK INTER:                  -5.693
REMARK INTRA:                  -1.285
REMARK UNBOUND:                -0.408
REMARK  9 active torsions:
REMARK  status: ('A' for Active; 'I' for Inactive)
REMARK    1  A    between atoms: C1_1  and  N_26 
REMARK    2  A    between atoms: C3_3  and  C4_25 
REMARK    3  A    between atoms: C3_3  and  N_26 
REMARK    4  A    between atoms: C11_8  and  C13_10 
REMARK    5  A    between atoms: C19_14  and  O1_19 
REMARK    6  A    between atoms: C21_16  and  O_21 
REMARK    7  A    between atoms: C17_23  and  N1_24 
REMARK    8  A    between atoms: N1_24  and  C5_28 
REMARK    9  A    between atoms: N1_24  and  C4_25 
ROOT
ATOM      1  C7  5SF A 803      84.992   5.602  12.424  1.00  0.00     0.034 A 
ATOM      2  C8  5SF A 803      86.029   4.971  13.141  1.00  0.00     0.059 A 
ATOM      3  C9  5SF A 803      86.265   3.598  12.939  1.00  0.00     0.061 A 
ATOM      4  C10 5SF A 803      85.509   2.895  11.978  1.00  0.00     0.061 A 
ATOM      5  C11 5SF A 803      87.856   3.644  14.595  1.00  0.00     0.061 A 
ATOM      6  C12 5SF A 803      87.627   5.008  14.781  1.00  0.00     0.119 A 
ATOM      7  C5  5SF A 803      84.484   3.542  11.267  1.00  0.00     0.037 A 
ATOM      8  N2  5SF A 803      87.199   2.936  13.689  1.00  0.00    -0.352 N 
ATOM      9  H2  5SF A 803      87.381   1.941  13.557  1.00  0.00     0.166 HD
ATOM     10  N3  5SF A 803      86.746   5.683  14.068  1.00  0.00    -0.362 N 
ATOM     11  H3  5SF A 803      86.603   6.684  14.200  1.00  0.00     0.165 HD
ATOM     12  C6  5SF A 803      84.248   4.906  11.516  1.00  0.00     0.032 A 
ENDROOT
BRANCH   7  13
ATOM     13  N1  5SF A 803      83.642   2.812  10.390  1.00  0.00    -0.345 N 
BRANCH  13  14
ATOM     14  C17 5SF A 803      84.149   2.362   9.140  1.00  0.00     0.040 A 
ATOM     15  C22 5SF A 803      83.334   2.460   8.013  1.00  0.00     0.066 A 
ATOM     16  C21 5SF A 803      83.780   1.930   6.813  1.00  0.00     0.073 A 
ATOM     17  C20 5SF A 803      85.019   1.316   6.719  1.00  0.00     0.073 A 
ATOM     18  C19 5SF A 803      85.814   1.219   7.851  1.00  0.00     0.073 A 
ATOM     19  C18 5SF A 803      85.407   1.767   9.061  1.00  0.00     0.066 A 
BRANCH  16  20
ATOM     20  O   5SF A 803      82.882   2.077   5.785  1.00  0.00    -0.356 OA
ATOM     21  C23 5SF A 803      82.662   3.374   5.247  1.00  0.00     0.210 C 
ENDBRANCH  16  20
BRANCH  18  22
ATOM     22  O1  5SF A 803      87.050   0.620   7.881  1.00  0.00    -0.356 OA
ATOM     23  C24 5SF A 803      87.322  -0.390   8.845  1.00  0.00     0.210 C 
ENDBRANCH  18  22
ENDBRANCH  13  14
BRANCH  13  24
ATOM     24  C4  5SF A 803      82.178   2.735  10.544  1.00  0.00     0.157 C 
BRANCH  24  25
ATOM     25  C3  5SF A 803      81.897   2.254  11.960  1.00  0.00     0.253 C 
BRANCH  25  26
ATOM     26  N   5SF A 803      81.275   3.319  12.765  1.00  0.00    -0.070 N 
ATOM     27  H   5SF A 803      80.262   3.218  12.701  1.00  0.00     0.277 HD
ATOM     28  H   5SF A 803      81.606   4.207  12.388  1.00  0.00     0.277 HD
BRANCH  26  29
ATOM     29  C1  5SF A 803      81.656   3.291  14.192  1.00  0.00     0.178 C 
ATOM     30  C2  5SF A 803      81.972   4.698  14.649  1.00  0.00     0.039 C 
ATOM     31  C   5SF A 803      82.811   2.354  14.427  1.00  0.00     0.039 C 
ENDBRANCH  26  29
ENDBRANCH  25  26
ENDBRANCH  24  25
ENDBRANCH  13  24
ENDBRANCH   7  13
BRANCH   5  32
ATOM     32  C13 5SF A 803      88.874   2.916  15.393  1.00  0.00     0.026 A 
ATOM     33  C14 5SF A 803      89.128   1.543  15.420  1.00  0.00     0.122 A 
ATOM     34  N4  5SF A 803      90.203   1.249  16.136  1.00  0.00    -0.310 N 
ATOM     35  N5  5SF A 803      90.655   2.463  16.594  1.00  0.00    -0.307 N 
ATOM     36  H4  5SF A 803      90.605   0.328  16.309  1.00  0.00     0.186 HD
ATOM     37  C15 5SF A 803      89.871   3.458  16.160  1.00  0.00     0.124 A 
ATOM     38  C16 5SF A 803      91.841   2.567  17.436  1.00  0.00     0.177 C 
ENDBRANCH   5  32
TORSDOF 9
ENDMDL
MODEL 12
REMARK VINA RESULT:    -4.298      1.483      2.624
REMARK INTER + INTRA:          -6.967
REMARK INTER:                  -6.232
REMARK INTRA:                  -0.735
REMARK UNBOUND:                -0.408
REMARK  9 active torsions:
REMARK  status: ('A' for Active; 'I' for Inactive)
REMARK    1  A    between atoms: C1_1  and  N_26 
REMARK    2  A    between atoms: C3_3  and  C4_25 
REMARK    3  A    between atoms: C3_3  and  N_26 
REMARK    4  A    between atoms: C11_8  and  C13_10 
REMARK    5  A    between atoms: C19_14  and  O1_19 
REMARK    6  A    between atoms: C21_16  and  O_21 
REMARK    7  A    between atoms: C17_23  and  N1_24 
REMARK    8  A    between atoms: N1_24  and  C5_28 
REMARK    9  A    between atoms: N1_24  and  C4_25 
ROOT
ATOM      1  C7  5SF A 803      88.250   0.318  10.410  1.00  0.00     0.034 A 
ATOM      2  C8  5SF A 803      87.376   0.659   9.357  1.00  0.00     0.059 A 
ATOM      3  C9  5SF A 803      86.403   1.653   9.568  1.00  0.00     0.061 A 
ATOM      4  C10 5SF A 803      86.362   2.337  10.801  1.00  0.00     0.061 A 
ATOM      5  C11 5SF A 803      85.550   1.241   7.475  1.00  0.00     0.061 A 
ATOM      6  C12 5SF A 803      86.526   0.265   7.267  1.00  0.00     0.119 A 
ATOM      7  C5  5SF A 803      87.246   1.990  11.836  1.00  0.00     0.037 A 
ATOM      8  N2  5SF A 803      85.478   1.937   8.599  1.00  0.00    -0.352 N 
ATOM      9  H2  5SF A 803      84.765   2.654   8.737  1.00  0.00     0.166 HD
ATOM     10  N3  5SF A 803      87.441  -0.027   8.171  1.00  0.00    -0.362 N 
ATOM     11  H3  5SF A 803      88.162  -0.727   7.997  1.00  0.00     0.165 HD
ATOM     12  C6  5SF A 803      88.184   0.968  11.608  1.00  0.00     0.032 A 
ENDROOT
BRANCH   7  13
ATOM     13  N1  5SF A 803      87.130   2.591  13.116  1.00  0.00    -0.345 N 
BRANCH  13  14
ATOM     14  C17 5SF A 803      88.066   2.265  14.135  1.00  0.00     0.040 A 
ATOM     15  C22 5SF A 803      89.344   2.818  14.071  1.00  0.00     0.066 A 
ATOM     16  C21 5SF A 803      90.295   2.426  15.000  1.00  0.00     0.073 A 
ATOM     17  C20 5SF A 803      89.988   1.504  15.990  1.00  0.00     0.073 A 
ATOM     18  C19 5SF A 803      88.714   0.958  16.035  1.00  0.00     0.073 A 
ATOM     19  C18 5SF A 803      87.733   1.353  15.135  1.00  0.00     0.066 A 
BRANCH  16  20
ATOM     20  O   5SF A 803      91.514   3.029  14.821  1.00  0.00    -0.356 OA
ATOM     21  C23 5SF A 803      92.062   3.094  13.512  1.00  0.00     0.210 C 
ENDBRANCH  16  20
BRANCH  18  22
ATOM     22  O1  5SF A 803      88.303   0.027  16.958  1.00  0.00    -0.356 OA
ATOM     23  C24 5SF A 803      89.110  -0.239  18.099  1.00  0.00     0.210 C 
ENDBRANCH  18  22
ENDBRANCH  13  14
BRANCH  13  24
ATOM     24  C4  5SF A 803      85.926   3.312  13.569  1.00  0.00     0.157 C 
BRANCH  24  25
ATOM     25  C3  5SF A 803      86.362   4.713  13.967  1.00  0.00     0.253 C 
BRANCH  25  26
ATOM     26  N   5SF A 803      86.122   5.671  12.874  1.00  0.00    -0.070 N 
ATOM     27  H   5SF A 803      85.747   5.159  12.076  1.00  0.00     0.277 HD
ATOM     28  H   5SF A 803      87.017   6.116  12.670  1.00  0.00     0.277 HD
BRANCH  26  29
ATOM     29  C1  5SF A 803      85.176   6.750  13.221  1.00  0.00     0.178 C 
ATOM     30  C2  5SF A 803      85.167   6.939  14.722  1.00  0.00     0.039 C 
ATOM     31  C   5SF A 803      83.799   6.458  12.687  1.00  0.00     0.039 C 
ENDBRANCH  26  29
ENDBRANCH  25  26
ENDBRANCH  24  25
ENDBRANCH  13  24
ENDBRANCH   7  13
BRANCH   5  32
ATOM     32  C13 5SF A 803      84.549   1.567   6.430  1.00  0.00     0.026 A 
ATOM     33  C14 5SF A 803      84.448   1.043   5.138  1.00  0.00     0.122 A 
ATOM     34  N4  5SF A 803      83.349   1.449   4.521  1.00  0.00    -0.310 N 
ATOM     35  N5  5SF A 803      82.722   2.265   5.431  1.00  0.00    -0.307 N 
ATOM     36  H4  5SF A 803      83.038   1.210   3.579  1.00  0.00     0.186 HD
ATOM     37  C15 5SF A 803      83.428   2.342   6.566  1.00  0.00     0.124 A 
ATOM     38  C16 5SF A 803      81.456   2.920   5.123  1.00  0.00     0.177 C 
ENDBRANCH   5  32
TORSDOF 9
ENDMDL
MODEL 13
REMARK VINA RESULT:    -4.183      3.416      8.774
REMARK INTER + INTRA:          -6.791
REMARK INTER:                  -5.553
REMARK INTRA:                  -1.238
REMARK UNBOUND:                -0.408
REMARK  9 active torsions:
REMARK  status: ('A' for Active; 'I' for Inactive)
REMARK    1  A    between atoms: C1_1  and  N_26 
REMARK    2  A    between atoms: C3_3  and  C4_25 
REMARK    3  A    between atoms: C3_3  and  N_26 
REMARK    4  A    between atoms: C11_8  and  C13_10 
REMARK    5  A    between atoms: C19_14  and  O1_19 
REMARK    6  A    between atoms: C21_16  and  O_21 
REMARK    7  A    between atoms: C17_23  and  N1_24 
REMARK    8  A    between atoms: N1_24  and  C5_28 
REMARK    9  A    between atoms: N1_24  and  C4_25 
ROOT
ATOM      1  C7  5SF A 803      84.952   5.590  12.304  1.00  0.00     0.034 A 
ATOM      2  C8  5SF A 803      85.980   4.949  13.025  1.00  0.00     0.059 A 
ATOM      3  C9  5SF A 803      86.176   3.566  12.856  1.00  0.00     0.061 A 
ATOM      4  C10 5SF A 803      85.390   2.860  11.921  1.00  0.00     0.061 A 
ATOM      5  C11 5SF A 803      87.786   3.609  14.493  1.00  0.00     0.061 A 
ATOM      6  C12 5SF A 803      87.596   4.983  14.647  1.00  0.00     0.119 A 
ATOM      7  C5  5SF A 803      84.376   3.517  11.204  1.00  0.00     0.037 A 
ATOM      8  N2  5SF A 803      87.100   2.897  13.613  1.00  0.00    -0.352 N 
ATOM      9  H2  5SF A 803      87.253   1.894  13.504  1.00  0.00     0.166 HD
ATOM     10  N3  5SF A 803      86.726   5.664  13.927  1.00  0.00    -0.362 N 
ATOM     11  H3  5SF A 803      86.612   6.672  14.036  1.00  0.00     0.165 HD
ATOM     12  C6  5SF A 803      84.180   4.893  11.421  1.00  0.00     0.032 A 
ENDROOT
BRANCH   7  13
ATOM     13  N1  5SF A 803      83.505   2.789  10.354  1.00  0.00    -0.345 N 
BRANCH  13  14
ATOM     14  C17 5SF A 803      83.980   2.312   9.102  1.00  0.00     0.040 A 
ATOM     15  C22 5SF A 803      85.225   1.687   9.052  1.00  0.00     0.066 A 
ATOM     16  C21 5SF A 803      85.741   1.312   7.821  1.00  0.00     0.073 A 
ATOM     17  C20 5SF A 803      85.035   1.541   6.651  1.00  0.00     0.073 A 
ATOM     18  C19 5SF A 803      83.801   2.171   6.717  1.00  0.00     0.073 A 
ATOM     19  C18 5SF A 803      83.245   2.531   7.938  1.00  0.00     0.066 A 
BRANCH  16  20
ATOM     20  O   5SF A 803      86.978   0.722   7.905  1.00  0.00    -0.356 OA
ATOM     21  C23 5SF A 803      87.155  -0.377   8.790  1.00  0.00     0.210 C 
ENDBRANCH  16  20
BRANCH  18  22
ATOM     22  O1  5SF A 803      83.021   2.463   5.624  1.00  0.00    -0.356 OA
ATOM     23  C24 5SF A 803      83.007   1.578   4.511  1.00  0.00     0.210 C 
ENDBRANCH  18  22
ENDBRANCH  13  14
BRANCH  13  24
ATOM     24  C4  5SF A 803      82.043   2.739  10.537  1.00  0.00     0.157 C 
BRANCH  24  25
ATOM     25  C3  5SF A 803      81.782   2.314  11.974  1.00  0.00     0.253 C 
BRANCH  25  26
ATOM     26  N   5SF A 803      81.094   3.379  12.724  1.00  0.00    -0.070 N 
ATOM     27  H   5SF A 803      80.092   3.192  12.700  1.00  0.00     0.277 HD
ATOM     28  H   5SF A 803      81.339   4.262  12.275  1.00  0.00     0.277 HD
BRANCH  26  29
ATOM     29  C1  5SF A 803      81.515   3.485  14.135  1.00  0.00     0.178 C 
ATOM     30  C2  5SF A 803      81.828   4.930  14.452  1.00  0.00     0.039 C 
ATOM     31  C   5SF A 803      82.687   2.584  14.421  1.00  0.00     0.039 C 
ENDBRANCH  26  29
ENDBRANCH  25  26
ENDBRANCH  24  25
ENDBRANCH  13  24
ENDBRANCH   7  13
BRANCH   5  32
ATOM     32  C13 5SF A 803      88.792   2.873  15.299  1.00  0.00     0.026 A 
ATOM     33  C14 5SF A 803      89.051   1.500  15.310  1.00  0.00     0.122 A 
ATOM     34  N4  5SF A 803      90.114   1.200  16.042  1.00  0.00    -0.310 N 
ATOM     35  N5  5SF A 803      90.553   2.409  16.525  1.00  0.00    -0.307 N 
ATOM     36  H4  5SF A 803      90.517   0.278  16.208  1.00  0.00     0.186 HD
ATOM     37  C15 5SF A 803      89.773   3.407  16.091  1.00  0.00     0.124 A 
ATOM     38  C16 5SF A 803      91.723   2.505  17.390  1.00  0.00     0.177 C 
ENDBRANCH   5  32
TORSDOF 9
ENDMDL
MODEL 14
REMARK VINA RESULT:    -4.074      3.673      9.207
REMARK INTER + INTRA:          -6.625
REMARK INTER:                  -6.446
REMARK INTRA:                  -0.179
REMARK UNBOUND:                -0.408
REMARK  9 active torsions:
REMARK  status: ('A' for Active; 'I' for Inactive)
REMARK    1  A    between atoms: C1_1  and  N_26 
REMARK    2  A    between atoms: C3_3  and  C4_25 
REMARK    3  A    between atoms: C3_3  and  N_26 
REMARK    4  A    between atoms: C11_8  and  C13_10 
REMARK    5  A    between atoms: C19_14  and  O1_19 
REMARK    6  A    between atoms: C21_16  and  O_21 
REMARK    7  A    between atoms: C17_23  and  N1_24 
REMARK    8  A    between atoms: N1_24  and  C5_28 
REMARK    9  A    between atoms: N1_24  and  C4_25 
ROOT
ATOM      1  C7  5SF A 803      86.469   0.579   8.131  1.00  0.00     0.034 A 
ATOM      2  C8  5SF A 803      86.822   1.028   9.420  1.00  0.00     0.059 A 
ATOM      3  C9  5SF A 803      85.982   1.944  10.081  1.00  0.00     0.061 A 
ATOM      4  C10 5SF A 803      84.772   2.342   9.474  1.00  0.00     0.061 A 
ATOM      5  C11 5SF A 803      87.504   2.082  11.794  1.00  0.00     0.061 A 
ATOM      6  C12 5SF A 803      88.327   1.163  11.141  1.00  0.00     0.119 A 
ATOM      7  C5  5SF A 803      84.433   1.878   8.192  1.00  0.00     0.037 A 
ATOM      8  N2  5SF A 803      86.344   2.473  11.290  1.00  0.00    -0.352 N 
ATOM      9  H2  5SF A 803      85.748   3.139  11.781  1.00  0.00     0.166 HD
ATOM     10  N3  5SF A 803      88.005   0.622   9.982  1.00  0.00    -0.362 N 
ATOM     11  H3  5SF A 803      88.606  -0.064   9.526  1.00  0.00     0.165 HD
ATOM     12  C6  5SF A 803      85.310   0.991   7.542  1.00  0.00     0.032 A 
ENDROOT
BRANCH   7  13
ATOM     13  N1  5SF A 803      83.280   2.369   7.528  1.00  0.00    -0.345 N 
BRANCH  13  14
ATOM     14  C17 5SF A 803      82.401   3.257   8.207  1.00  0.00     0.040 A 
ATOM     15  C22 5SF A 803      82.350   4.589   7.800  1.00  0.00     0.066 A 
ATOM     16  C21 5SF A 803      81.576   5.484   8.522  1.00  0.00     0.073 A 
ATOM     17  C20 5SF A 803      80.851   5.071   9.629  1.00  0.00     0.073 A 
ATOM     18  C19 5SF A 803      80.919   3.744  10.026  1.00  0.00     0.073 A 
ATOM     19  C18 5SF A 803      81.663   2.818   9.305  1.00  0.00     0.066 A 
BRANCH  16  20
ATOM     20  O   5SF A 803      81.621   6.765   8.029  1.00  0.00    -0.356 OA
ATOM     21  C23 5SF A 803      81.961   6.963   6.664  1.00  0.00     0.210 C 
ENDBRANCH  16  20
BRANCH  18  22
ATOM     22  O1  5SF A 803      80.258   3.226  11.113  1.00  0.00    -0.356 OA
ATOM     23  C24 5SF A 803      80.640   3.622  12.425  1.00  0.00     0.210 C 
ENDBRANCH  18  22
ENDBRANCH  13  14
BRANCH  13  24
ATOM     24  C4  5SF A 803      82.755   1.794   6.277  1.00  0.00     0.157 C 
BRANCH  24  25
ATOM     25  C3  5SF A 803      83.193   2.707   5.142  1.00  0.00     0.253 C 
BRANCH  25  26
ATOM     26  N   5SF A 803      84.161   2.029   4.263  1.00  0.00    -0.070 N 
ATOM     27  H   5SF A 803      85.102   2.283   4.566  1.00  0.00     0.277 HD
ATOM     28  H   5SF A 803      83.960   2.335   3.311  1.00  0.00     0.277 HD
BRANCH  26  29
ATOM     29  C1  5SF A 803      84.051   0.557   4.274  1.00  0.00     0.178 C 
ATOM     30  C2  5SF A 803      85.422  -0.045   4.057  1.00  0.00     0.039 C 
ATOM     31  C   5SF A 803      83.062   0.079   3.244  1.00  0.00     0.039 C 
ENDBRANCH  26  29
ENDBRANCH  25  26
ENDBRANCH  24  25
ENDBRANCH  13  24
ENDBRANCH   7  13
BRANCH   5  32
ATOM     32  C13 5SF A 803      87.880   2.655  13.111  1.00  0.00     0.026 A 
ATOM     33  C14 5SF A 803      87.124   3.494  13.934  1.00  0.00     0.122 A 
ATOM     34  N4  5SF A 803      87.708   3.700  15.105  1.00  0.00    -0.310 N 
ATOM     35  N5  5SF A 803      88.877   2.983  15.040  1.00  0.00    -0.307 N 
ATOM     36  H4  5SF A 803      87.365   4.266  15.882  1.00  0.00     0.186 HD
ATOM     37  C15 5SF A 803      88.989   2.361  13.859  1.00  0.00     0.124 A 
ATOM     38  C16 5SF A 803      89.818   2.954  16.153  1.00  0.00     0.177 C 
ENDBRANCH   5  32
TORSDOF 9
ENDMDL
MODEL 15
REMARK VINA RESULT:    -4.025      3.316      8.549
REMARK INTER + INTRA:          -6.550
REMARK INTER:                  -6.051
REMARK INTRA:                  -0.498
REMARK UNBOUND:                -0.408
REMARK  9 active torsions:
REMARK  status: ('A' for Active; 'I' for Inactive)
REMARK    1  A    between atoms: C1_1  and  N_26 
REMARK    2  A    between atoms: C3_3  and  C4_25 
REMARK    3  A    between atoms: C3_3  and  N_26 
REMARK    4  A    between atoms: C11_8  and  C13_10 
REMARK    5  A    between atoms: C19_14  and  O1_19 
REMARK    6  A    between atoms: C21_16  and  O_21 
REMARK    7  A    between atoms: C17_23  and  N1_24 
REMARK    8  A    between atoms: N1_24  and  C5_28 
REMARK    9  A    between atoms: N1_24  and  C4_25 
ROOT
ATOM      1  C7  5SF A 803      85.739   4.886  11.801  1.00  0.00     0.034 A 
ATOM      2  C8  5SF A 803      86.576   4.162  12.675  1.00  0.00     0.059 A 
ATOM      3  C9  5SF A 803      86.607   2.758  12.589  1.00  0.00     0.061 A 
ATOM      4  C10 5SF A 803      85.856   2.105  11.590  1.00  0.00     0.061 A 
ATOM      5  C11 5SF A 803      87.995   2.692  14.417  1.00  0.00     0.061 A 
ATOM      6  C12 5SF A 803      87.971   4.086  14.489  1.00  0.00     0.119 A 
ATOM      7  C5  5SF A 803      85.033   2.842  10.722  1.00  0.00     0.037 A 
ATOM      8  N2  5SF A 803      87.334   2.023  13.486  1.00  0.00    -0.352 N 
ATOM      9  H2  5SF A 803      87.366   1.004  13.438  1.00  0.00     0.166 HD
ATOM     10  N3  5SF A 803      87.293   4.828  13.635  1.00  0.00    -0.362 N 
ATOM     11  H3  5SF A 803      87.302   5.847  13.687  1.00  0.00     0.165 HD
ATOM     12  C6  5SF A 803      84.995   4.242  10.855  1.00  0.00     0.032 A 
ENDROOT
BRANCH   7  13
ATOM     13  N1  5SF A 803      84.184   2.182   9.797  1.00  0.00    -0.345 N 
BRANCH  13  14
ATOM     14  C17 5SF A 803      84.749   1.515   8.675  1.00  0.00     0.040 A 
ATOM     15  C22 5SF A 803      85.923   0.784   8.853  1.00  0.00     0.066 A 
ATOM     16  C21 5SF A 803      86.536   0.218   7.746  1.00  0.00     0.073 A 
ATOM     17  C20 5SF A 803      85.995   0.361   6.478  1.00  0.00     0.073 A 
ATOM     18  C19 5SF A 803      84.831   1.098   6.317  1.00  0.00     0.073 A 
ATOM     19  C18 5SF A 803      84.178   1.652   7.411  1.00  0.00     0.066 A 
BRANCH  16  20
ATOM     20  O   5SF A 803      87.689  -0.462   8.050  1.00  0.00    -0.356 OA
ATOM     21  C23 5SF A 803      88.120  -0.511   9.403  1.00  0.00     0.210 C 
ENDBRANCH  16  20
BRANCH  18  22
ATOM     22  O1  5SF A 803      84.215   1.319   5.109  1.00  0.00    -0.356 OA
ATOM     23  C24 5SF A 803      84.778   0.778   3.921  1.00  0.00     0.210 C 
ENDBRANCH  18  22
ENDBRANCH  13  14
BRANCH  13  24
ATOM     24  C4  5SF A 803      82.725   2.383   9.744  1.00  0.00     0.157 C 
BRANCH  24  25
ATOM     25  C3  5SF A 803      82.325   3.120  11.014  1.00  0.00     0.253 C 
BRANCH  25  26
ATOM     26  N   5SF A 803      81.802   2.185  12.024  1.00  0.00    -0.070 N 
ATOM     27  H   5SF A 803      82.311   1.305  11.941  1.00  0.00     0.277 HD
ATOM     28  H   5SF A 803      80.804   2.080  11.841  1.00  0.00     0.277 HD
BRANCH  26  29
ATOM     29  C1  5SF A 803      81.934   2.669  13.413  1.00  0.00     0.178 C 
ATOM     30  C2  5SF A 803      82.050   4.177  13.404  1.00  0.00     0.039 C 
ATOM     31  C   5SF A 803      83.105   2.023  14.104  1.00  0.00     0.039 C 
ENDBRANCH  26  29
ENDBRANCH  25  26
ENDBRANCH  24  25
ENDBRANCH  13  24
ENDBRANCH   7  13
BRANCH   5  32
ATOM     32  C13 5SF A 803      88.788   1.883  15.376  1.00  0.00     0.026 A 
ATOM     33  C14 5SF A 803      90.107   2.084  15.789  1.00  0.00     0.122 A 
ATOM     34  N4  5SF A 803      90.455   1.258  16.764  1.00  0.00    -0.310 N 
ATOM     35  N5  5SF A 803      89.335   0.494  16.986  1.00  0.00    -0.307 N 
ATOM     36  H4  5SF A 803      91.354   1.201  17.244  1.00  0.00     0.186 HD
ATOM     37  C15 5SF A 803      88.341   0.857  16.166  1.00  0.00     0.124 A 
ATOM     38  C16 5SF A 803      89.313  -0.552  18.002  1.00  0.00     0.177 C 
ENDBRANCH   5  32
TORSDOF 9
ENDMDL
MODEL 16
REMARK VINA RESULT:    -3.989      3.011      5.007
REMARK INTER + INTRA:          -6.495
REMARK INTER:                  -5.264
REMARK INTRA:                  -1.232
REMARK UNBOUND:                -0.408
REMARK  9 active torsions:
REMARK  status: ('A' for Active; 'I' for Inactive)
REMARK    1  A    between atoms: C1_1  and  N_26 
REMARK    2  A    between atoms: C3_3  and  C4_25 
REMARK    3  A    between atoms: C3_3  and  N_26 
REMARK    4  A    between atoms: C11_8  and  C13_10 
REMARK    5  A    between atoms: C19_14  and  O1_19 
REMARK    6  A    between atoms: C21_16  and  O_21 
REMARK    7  A    between atoms: C17_23  and  N1_24 
REMARK    8  A    between atoms: N1_24  and  C5_28 
REMARK    9  A    between atoms: N1_24  and  C4_25 
ROOT
ATOM      1  C7  5SF A 803      82.543   2.920  12.547  1.00  0.00     0.034 A 
ATOM      2  C8  5SF A 803      82.326   3.475  11.269  1.00  0.00     0.059 A 
ATOM      3  C9  5SF A 803      83.376   4.164  10.634  1.00  0.00     0.061 A 
ATOM      4  C10 5SF A 803      84.642   4.230  11.253  1.00  0.00     0.061 A 
ATOM      5  C11 5SF A 803      81.952   4.724   8.921  1.00  0.00     0.061 A 
ATOM      6  C12 5SF A 803      80.918   4.027   9.550  1.00  0.00     0.119 A 
ATOM      7  C5  5SF A 803      84.842   3.664  12.524  1.00  0.00     0.037 A 
ATOM      8  N2  5SF A 803      83.168   4.797   9.438  1.00  0.00    -0.352 N 
ATOM      9  H2  5SF A 803      83.918   5.303   8.965  1.00  0.00     0.166 HD
ATOM     10  N3  5SF A 803      81.084   3.394  10.695  1.00  0.00    -0.362 N 
ATOM     11  H3  5SF A 803      80.325   2.871  11.132  1.00  0.00     0.165 HD
ATOM     12  C6  5SF A 803      83.764   3.012  13.149  1.00  0.00     0.032 A 
ENDROOT
BRANCH   7  13
ATOM     13  N1  5SF A 803      86.076   3.832  13.202  1.00  0.00    -0.345 N 
BRANCH  13  14
ATOM     14  C17 5SF A 803      87.106   2.865  13.040  1.00  0.00     0.040 A 
ATOM     15  C22 5SF A 803      87.351   2.355  11.766  1.00  0.00     0.066 A 
ATOM     16  C21 5SF A 803      88.281   1.338  11.616  1.00  0.00     0.073 A 
ATOM     17  C20 5SF A 803      88.970   0.833  12.707  1.00  0.00     0.073 A 
ATOM     18  C19 5SF A 803      88.709   1.346  13.969  1.00  0.00     0.073 A 
ATOM     19  C18 5SF A 803      87.805   2.385  14.147  1.00  0.00     0.066 A 
BRANCH  16  20
ATOM     20  O   5SF A 803      88.420   0.913  10.318  1.00  0.00    -0.356 OA
ATOM     21  C23 5SF A 803      87.391   1.213   9.384  1.00  0.00     0.210 C 
ENDBRANCH  16  20
BRANCH  18  22
ATOM     22  O1  5SF A 803      89.318   0.913  15.122  1.00  0.00    -0.356 OA
ATOM     23  C24 5SF A 803      89.776   1.862  16.077  1.00  0.00     0.210 C 
ENDBRANCH  18  22
ENDBRANCH  13  14
BRANCH  13  24
ATOM     24  C4  5SF A 803      86.274   4.788  14.306  1.00  0.00     0.157 C 
BRANCH  24  25
ATOM     25  C3  5SF A 803      85.192   5.850  14.183  1.00  0.00     0.253 C 
BRANCH  25  26
ATOM     26  N   5SF A 803      84.244   5.772  15.308  1.00  0.00    -0.070 N 
ATOM     27  H   5SF A 803      84.673   6.215  16.120  1.00  0.00     0.277 HD
ATOM     28  H   5SF A 803      84.047   4.783  15.459  1.00  0.00     0.277 HD
BRANCH  26  29
ATOM     29  C1  5SF A 803      82.950   6.432  15.046  1.00  0.00     0.178 C 
ATOM     30  C2  5SF A 803      81.828   5.511  15.472  1.00  0.00     0.039 C 
ATOM     31  C   5SF A 803      82.826   6.832  13.601  1.00  0.00     0.039 C 
ENDBRANCH  26  29
ENDBRANCH  25  26
ENDBRANCH  24  25
ENDBRANCH  13  24
ENDBRANCH   7  13
BRANCH   5  32
ATOM     32  C13 5SF A 803      81.744   5.405   7.619  1.00  0.00     0.026 A 
ATOM     33  C14 5SF A 803      82.004   6.738   7.292  1.00  0.00     0.122 A 
ATOM     34  N4  5SF A 803      81.837   6.975   6.000  1.00  0.00    -0.310 N 
ATOM     35  N5  5SF A 803      81.450   5.767   5.473  1.00  0.00    -0.307 N 
ATOM     36  H4  5SF A 803      81.966   7.858   5.506  1.00  0.00     0.186 HD
ATOM     37  C15 5SF A 803      81.391   4.829   6.428  1.00  0.00     0.124 A 
ATOM     38  C16 5SF A 803      81.164   5.610   4.052  1.00  0.00     0.177 C 
ENDBRANCH   5  32
TORSDOF 9
ENDMDL
MODEL 17
REMARK VINA RESULT:    -3.956      2.739      5.121
REMARK INTER + INTRA:          -6.445
REMARK INTER:                  -5.373
REMARK INTRA:                  -1.072
REMARK UNBOUND:                -0.408
REMARK  9 active torsions:
REMARK  status: ('A' for Active; 'I' for Inactive)
REMARK    1  A    between atoms: C1_1  and  N_26 
REMARK    2  A    between atoms: C3_3  and  C4_25 
REMARK    3  A    between atoms: C3_3  and  N_26 
REMARK    4  A    between atoms: C11_8  and  C13_10 
REMARK    5  A    between atoms: C19_14  and  O1_19 
REMARK    6  A    between atoms: C21_16  and  O_21 
REMARK    7  A    between atoms: C17_23  and  N1_24 
REMARK    8  A    between atoms: N1_24  and  C5_28 
REMARK    9  A    between atoms: N1_24  and  C4_25 
ROOT
ATOM      1  C7  5SF A 803      83.365   5.923  11.204  1.00  0.00     0.034 A 
ATOM      2  C8  5SF A 803      82.797   5.356  10.045  1.00  0.00     0.059 A 
ATOM      3  C9  5SF A 803      82.806   3.957   9.890  1.00  0.00     0.061 A 
ATOM      4  C10 5SF A 803      83.320   3.146  10.924  1.00  0.00     0.061 A 
ATOM      5  C11 5SF A 803      81.908   4.198   7.791  1.00  0.00     0.061 A 
ATOM      6  C12 5SF A 803      81.889   5.584   7.955  1.00  0.00     0.119 A 
ATOM      7  C5  5SF A 803      83.875   3.728  12.076  1.00  0.00     0.037 A 
ATOM      8  N2  5SF A 803      82.351   3.382   8.735  1.00  0.00    -0.352 N 
ATOM      9  H2  5SF A 803      82.353   2.370   8.606  1.00  0.00     0.166 HD
ATOM     10  N3  5SF A 803      82.307   6.173   9.059  1.00  0.00    -0.362 N 
ATOM     11  H3  5SF A 803      82.268   7.186   9.173  1.00  0.00     0.165 HD
ATOM     12  C6  5SF A 803      83.884   5.130  12.186  1.00  0.00     0.032 A 
ENDROOT
BRANCH   7  13
ATOM     13  N1  5SF A 803      84.501   2.922  13.061  1.00  0.00    -0.345 N 
BRANCH  13  14
ATOM     14  C17 5SF A 803      85.863   2.547  12.903  1.00  0.00     0.040 A 
ATOM     15  C22 5SF A 803      86.706   2.601  14.012  1.00  0.00     0.066 A 
ATOM     16  C21 5SF A 803      88.056   2.337  13.844  1.00  0.00     0.073 A 
ATOM     17  C20 5SF A 803      88.572   2.013  12.599  1.00  0.00     0.073 A 
ATOM     18  C19 5SF A 803      87.721   1.971  11.504  1.00  0.00     0.073 A 
ATOM     19  C18 5SF A 803      86.359   2.202  11.646  1.00  0.00     0.066 A 
BRANCH  16  20
ATOM     20  O   5SF A 803      88.780   2.437  15.007  1.00  0.00    -0.356 OA
ATOM     21  C23 5SF A 803      89.171   1.246  15.676  1.00  0.00     0.210 C 
ENDBRANCH  16  20
BRANCH  18  22
ATOM     22  O1  5SF A 803      88.123   1.679  10.223  1.00  0.00    -0.356 OA
ATOM     23  C24 5SF A 803      87.205   1.081   9.316  1.00  0.00     0.210 C 
ENDBRANCH  18  22
ENDBRANCH  13  14
BRANCH  13  24
ATOM     24  C4  5SF A 803      83.760   2.188  14.103  1.00  0.00     0.157 C 
BRANCH  24  25
ATOM     25  C3  5SF A 803      82.469   2.951  14.361  1.00  0.00     0.253 C 
BRANCH  25  26
ATOM     26  N   5SF A 803      82.611   3.857  15.513  1.00  0.00    -0.070 N 
ATOM     27  H   5SF A 803      83.560   4.231  15.511  1.00  0.00     0.277 HD
ATOM     28  H   5SF A 803      82.407   3.307  16.348  1.00  0.00     0.277 HD
BRANCH  26  29
ATOM     29  C1  5SF A 803      81.664   4.990  15.504  1.00  0.00     0.178 C 
ATOM     30  C2  5SF A 803      80.674   4.800  14.376  1.00  0.00     0.039 C 
ATOM     31  C   5SF A 803      82.391   6.304  15.395  1.00  0.00     0.039 C 
ENDBRANCH  26  29
ENDBRANCH  25  26
ENDBRANCH  24  25
ENDBRANCH  13  24
ENDBRANCH   7  13
BRANCH   5  32
ATOM     32  C13 5SF A 803      81.407   3.561   6.547  1.00  0.00     0.026 A 
ATOM     33  C14 5SF A 803      80.605   4.125   5.552  1.00  0.00     0.122 A 
ATOM     34  N4  5SF A 803      80.465   3.320   4.510  1.00  0.00    -0.310 N 
ATOM     35  N5  5SF A 803      81.188   2.200   4.839  1.00  0.00    -0.307 N 
ATOM     36  H4  5SF A 803      79.937   3.493   3.654  1.00  0.00     0.186 HD
ATOM     37  C15 5SF A 803      81.749   2.333   6.047  1.00  0.00     0.124 A 
ATOM     38  C16 5SF A 803      81.283   1.060   3.934  1.00  0.00     0.177 C 
ENDBRANCH   5  32
TORSDOF 9
ENDMDL
MODEL 18
REMARK VINA RESULT:    -3.946      2.687      5.284
REMARK INTER + INTRA:          -6.430
REMARK INTER:                  -6.325
REMARK INTRA:                  -0.106
REMARK UNBOUND:                -0.408
REMARK  9 active torsions:
REMARK  status: ('A' for Active; 'I' for Inactive)
REMARK    1  A    between atoms: C1_1  and  N_26 
REMARK    2  A    between atoms: C3_3  and  C4_25 
REMARK    3  A    between atoms: C3_3  and  N_26 
REMARK    4  A    between atoms: C11_8  and  C13_10 
REMARK    5  A    between atoms: C19_14  and  O1_19 
REMARK    6  A    between atoms: C21_16  and  O_21 
REMARK    7  A    between atoms: C17_23  and  N1_24 
REMARK    8  A    between atoms: N1_24  and  C5_28 
REMARK    9  A    between atoms: N1_24  and  C4_25 
ROOT
ATOM      1  C7  5SF A 803      87.194   0.376   8.917  1.00  0.00     0.034 A 
ATOM      2  C8  5SF A 803      86.229   0.817   7.988  1.00  0.00     0.059 A 
ATOM      3  C9  5SF A 803      85.416   1.918   8.314  1.00  0.00     0.061 A 
ATOM      4  C10 5SF A 803      85.625   2.602   9.530  1.00  0.00     0.061 A 
ATOM      5  C11 5SF A 803      84.243   1.610   6.364  1.00  0.00     0.061 A 
ATOM      6  C12 5SF A 803      85.061   0.527   6.040  1.00  0.00     0.119 A 
ATOM      7  C5  5SF A 803      86.596   2.153  10.441  1.00  0.00     0.037 A 
ATOM      8  N2  5SF A 803      84.406   2.309   7.476  1.00  0.00    -0.352 N 
ATOM      9  H2  5SF A 803      83.807   3.104   7.699  1.00  0.00     0.166 HD
ATOM     10  N3  5SF A 803      86.051   0.129   6.815  1.00  0.00    -0.362 N 
ATOM     11  H3  5SF A 803      86.654  -0.651   6.555  1.00  0.00     0.165 HD
ATOM     12  C6  5SF A 803      87.369   1.028  10.102  1.00  0.00     0.032 A 
ENDROOT
BRANCH   7  13
ATOM     13  N1  5SF A 803      86.727   2.762  11.715  1.00  0.00    -0.345 N 
BRANCH  13  14
ATOM     14  C17 5SF A 803      85.657   3.539  12.237  1.00  0.00     0.040 A 
ATOM     15  C22 5SF A 803      84.895   3.014  13.279  1.00  0.00     0.066 A 
ATOM     16  C21 5SF A 803      83.787   3.719  13.724  1.00  0.00     0.073 A 
ATOM     17  C20 5SF A 803      83.437   4.933  13.155  1.00  0.00     0.073 A 
ATOM     18  C19 5SF A 803      84.201   5.438  12.113  1.00  0.00     0.073 A 
ATOM     19  C18 5SF A 803      85.333   4.770  11.666  1.00  0.00     0.066 A 
BRANCH  16  20
ATOM     20  O   5SF A 803      83.114   3.090  14.742  1.00  0.00    -0.356 OA
ATOM     21  C23 5SF A 803      82.739   1.729  14.578  1.00  0.00     0.210 C 
ENDBRANCH  16  20
BRANCH  18  22
ATOM     22  O1  5SF A 803      83.940   6.621  11.464  1.00  0.00    -0.356 OA
ATOM     23  C24 5SF A 803      82.719   6.781  10.753  1.00  0.00     0.210 C 
ENDBRANCH  18  22
ENDBRANCH  13  14
BRANCH  13  24
ATOM     24  C4  5SF A 803      88.013   2.900  12.422  1.00  0.00     0.157 C 
BRANCH  24  25
ATOM     25  C3  5SF A 803      88.094   1.769  13.436  1.00  0.00     0.253 C 
BRANCH  25  26
ATOM     26  N   5SF A 803      89.447   1.667  14.007  1.00  0.00    -0.070 N 
ATOM     27  H   5SF A 803      90.099   2.124  13.369  1.00  0.00     0.277 HD
ATOM     28  H   5SF A 803      89.644   0.674  14.124  1.00  0.00     0.277 HD
BRANCH  26  29
ATOM     29  C1  5SF A 803      89.584   2.292  15.338  1.00  0.00     0.178 C 
ATOM     30  C2  5SF A 803      90.912   3.012  15.414  1.00  0.00     0.039 C 
ATOM     31  C   5SF A 803      89.440   1.270  16.435  1.00  0.00     0.039 C 
ENDBRANCH  26  29
ENDBRANCH  25  26
ENDBRANCH  24  25
ENDBRANCH  13  24
ENDBRANCH   7  13
BRANCH   5  32
ATOM     32  C13 5SF A 803      83.152   2.052   5.460  1.00  0.00     0.026 A 
ATOM     33  C14 5SF A 803      82.663   1.409   4.319  1.00  0.00     0.122 A 
ATOM     34  N4  5SF A 803      81.588   2.009   3.832  1.00  0.00    -0.310 N 
ATOM     35  N5  5SF A 803      81.375   3.075   4.672  1.00  0.00    -0.307 N 
ATOM     36  H4  5SF A 803      81.040   1.740   3.015  1.00  0.00     0.186 HD
ATOM     37  C15 5SF A 803      82.300   3.109   5.640  1.00  0.00     0.124 A 
ATOM     38  C16 5SF A 803      80.266   3.998   4.468  1.00  0.00     0.177 C 
ENDBRANCH   5  32
TORSDOF 9
ENDMDL
MODEL 19
REMARK VINA RESULT:    -3.901      3.387      8.623
REMARK INTER + INTRA:          -6.361
REMARK INTER:                  -5.940
REMARK INTRA:                  -0.422
REMARK UNBOUND:                -0.408
REMARK  9 active torsions:
REMARK  status: ('A' for Active; 'I' for Inactive)
REMARK    1  A    between atoms: C1_1  and  N_26 
REMARK    2  A    between atoms: C3_3  and  C4_25 
REMARK    3  A    between atoms: C3_3  and  N_26 
REMARK    4  A    between atoms: C11_8  and  C13_10 
REMARK    5  A    between atoms: C19_14  and  O1_19 
REMARK    6  A    between atoms: C21_16  and  O_21 
REMARK    7  A    between atoms: C17_23  and  N1_24 
REMARK    8  A    between atoms: N1_24  and  C5_28 
REMARK    9  A    between atoms: N1_24  and  C4_25 
ROOT
ATOM      1  C7  5SF A 803      86.880   1.171   9.351  1.00  0.00     0.034 A 
ATOM      2  C8  5SF A 803      87.398   1.501  10.621  1.00  0.00     0.059 A 
ATOM      3  C9  5SF A 803      86.690   2.402  11.437  1.00  0.00     0.061 A 
ATOM      4  C10 5SF A 803      85.446   2.906  11.002  1.00  0.00     0.061 A 
ATOM      5  C11 5SF A 803      88.397   2.331  12.971  1.00  0.00     0.061 A 
ATOM      6  C12 5SF A 803      89.088   1.427  12.163  1.00  0.00     0.119 A 
ATOM      7  C5  5SF A 803      84.941   2.560   9.737  1.00  0.00     0.037 A 
ATOM      8  N2  5SF A 803      87.213   2.817  12.632  1.00  0.00    -0.352 N 
ATOM      9  H2  5SF A 803      86.714   3.472  13.234  1.00  0.00     0.166 HD
ATOM     10  N3  5SF A 803      88.610   0.995  11.013  1.00  0.00    -0.362 N 
ATOM     11  H3  5SF A 803      89.117   0.317  10.443  1.00  0.00     0.165 HD
ATOM     12  C6  5SF A 803      85.689   1.685   8.929  1.00  0.00     0.032 A 
ENDROOT
BRANCH   7  13
ATOM     13  N1  5SF A 803      83.752   3.158   9.247  1.00  0.00    -0.345 N 
BRANCH  13  14
ATOM     14  C17 5SF A 803      82.801   3.687  10.161  1.00  0.00     0.040 A 
ATOM     15  C22 5SF A 803      82.168   4.889   9.848  1.00  0.00     0.066 A 
ATOM     16  C21 5SF A 803      81.317   5.464  10.780  1.00  0.00     0.073 A 
ATOM     17  C20 5SF A 803      81.084   4.857  12.004  1.00  0.00     0.073 A 
ATOM     18  C19 5SF A 803      81.728   3.665  12.303  1.00  0.00     0.073 A 
ATOM     19  C18 5SF A 803      82.562   3.051  11.379  1.00  0.00     0.066 A 
BRANCH  16  20
ATOM     20  O   5SF A 803      80.770   6.650  10.359  1.00  0.00    -0.356 OA
ATOM     21  C23 5SF A 803      80.822   6.977   8.977  1.00  0.00     0.210 C 
ENDBRANCH  16  20
BRANCH  18  22
ATOM     22  O1  5SF A 803      81.585   2.985  13.488  1.00  0.00    -0.356 OA
ATOM     23  C24 5SF A 803      82.740   2.604  14.226  1.00  0.00     0.210 C 
ENDBRANCH  18  22
ENDBRANCH  13  14
BRANCH  13  24
ATOM     24  C4  5SF A 803      83.280   3.010   7.858  1.00  0.00     0.157 C 
BRANCH  24  25
ATOM     25  C3  5SF A 803      82.118   2.029   7.878  1.00  0.00     0.253 C 
BRANCH  25  26
ATOM     26  N   5SF A 803      80.968   2.557   7.125  1.00  0.00    -0.070 N 
ATOM     27  H   5SF A 803      80.432   3.167   7.742  1.00  0.00     0.277 HD
ATOM     28  H   5SF A 803      80.429   1.752   6.805  1.00  0.00     0.277 HD
BRANCH  26  29
ATOM     29  C1  5SF A 803      81.343   3.327   5.922  1.00  0.00     0.178 C 
ATOM     30  C2  5SF A 803      80.484   4.569   5.839  1.00  0.00     0.039 C 
ATOM     31  C   5SF A 803      81.227   2.484   4.680  1.00  0.00     0.039 C 
ENDBRANCH  26  29
ENDBRANCH  25  26
ENDBRANCH  24  25
ENDBRANCH  13  24
ENDBRANCH   7  13
BRANCH   5  32
ATOM     32  C13 5SF A 803      88.948   2.781  14.274  1.00  0.00     0.026 A 
ATOM     33  C14 5SF A 803      88.362   3.639  15.208  1.00  0.00     0.122 A 
ATOM     34  N4  5SF A 803      89.066   3.712  16.327  1.00  0.00    -0.310 N 
ATOM     35  N5  5SF A 803      90.143   2.886  16.113  1.00  0.00    -0.307 N 
ATOM     36  H4  5SF A 803      88.856   4.260  17.162  1.00  0.00     0.186 HD
ATOM     37  C15 5SF A 803      90.082   2.331  14.896  1.00  0.00     0.124 A 
ATOM     38  C16 5SF A 803      91.171   2.694  17.128  1.00  0.00     0.177 C 
ENDBRANCH   5  32
TORSDOF 9
ENDMDL
MODEL 20
REMARK VINA RESULT:    -3.893      3.026      5.071
REMARK INTER + INTRA:          -6.349
REMARK INTER:                  -5.051
REMARK INTRA:                  -1.298
REMARK UNBOUND:                -0.408
REMARK  9 active torsions:
REMARK  status: ('A' for Active; 'I' for Inactive)
REMARK    1  A    between atoms: C1_1  and  N_26 
REMARK    2  A    between atoms: C3_3  and  C4_25 
REMARK    3  A    between atoms: C3_3  and  N_26 
REMARK    4  A    between atoms: C11_8  and  C13_10 
REMARK    5  A    between atoms: C19_14  and  O1_19 
REMARK    6  A    between atoms: C21_16  and  O_21 
REMARK    7  A    between atoms: C17_23  and  N1_24 
REMARK    8  A    between atoms: N1_24  and  C5_28 
REMARK    9  A    between atoms: N1_24  and  C4_25 
ROOT
ATOM      1  C7  5SF A 803      82.512   2.957  12.585  1.00  0.00     0.034 A 
ATOM      2  C8  5SF A 803      82.297   3.504  11.303  1.00  0.00     0.059 A 
ATOM      3  C9  5SF A 803      83.347   4.188  10.664  1.00  0.00     0.061 A 
ATOM      4  C10 5SF A 803      84.612   4.257  11.284  1.00  0.00     0.061 A 
ATOM      5  C11 5SF A 803      81.924   4.736   8.947  1.00  0.00     0.061 A 
ATOM      6  C12 5SF A 803      80.890   4.044   9.579  1.00  0.00     0.119 A 
ATOM      7  C5  5SF A 803      84.811   3.700  12.559  1.00  0.00     0.037 A 
ATOM      8  N2  5SF A 803      83.141   4.812   9.464  1.00  0.00    -0.352 N 
ATOM      9  H2  5SF A 803      83.891   5.314   8.988  1.00  0.00     0.166 HD
ATOM     10  N3  5SF A 803      81.055   3.419  10.729  1.00  0.00    -0.362 N 
ATOM     11  H3  5SF A 803      80.295   2.900  11.170  1.00  0.00     0.165 HD
ATOM     12  C6  5SF A 803      83.733   3.053  13.188  1.00  0.00     0.032 A 
ENDROOT
BRANCH   7  13
ATOM     13  N1  5SF A 803      86.045   3.873  13.237  1.00  0.00    -0.345 N 
BRANCH  13  14
ATOM     14  C17 5SF A 803      87.074   2.904  13.083  1.00  0.00     0.040 A 
ATOM     15  C22 5SF A 803      87.932   2.663  14.155  1.00  0.00     0.066 A 
ATOM     16  C21 5SF A 803      89.001   1.798  13.980  1.00  0.00     0.073 A 
ATOM     17  C20 5SF A 803      89.219   1.168  12.765  1.00  0.00     0.073 A 
ATOM     18  C19 5SF A 803      88.361   1.424  11.706  1.00  0.00     0.073 A 
ATOM     19  C18 5SF A 803      87.265   2.264  11.859  1.00  0.00     0.066 A 
BRANCH  16  20
ATOM     20  O   5SF A 803      89.778   1.657  15.103  1.00  0.00    -0.356 OA
ATOM     21  C23 5SF A 803      89.839   2.729  16.034  1.00  0.00     0.210 C 
ENDBRANCH  16  20
BRANCH  18  22
ATOM     22  O1  5SF A 803      88.488   0.871  10.455  1.00  0.00    -0.356 OA
ATOM     23  C24 5SF A 803      87.429   1.002   9.514  1.00  0.00     0.210 C 
ENDBRANCH  18  22
ENDBRANCH  13  14
BRANCH  13  24
ATOM     24  C4  5SF A 803      86.242   4.836  14.334  1.00  0.00     0.157 C 
BRANCH  24  25
ATOM     25  C3  5SF A 803      85.206   5.936  14.162  1.00  0.00     0.253 C 
BRANCH  25  26
ATOM     26  N   5SF A 803      84.303   5.999  15.324  1.00  0.00    -0.070 N 
ATOM     27  H   5SF A 803      84.754   6.554  16.051  1.00  0.00     0.277 HD
ATOM     28  H   5SF A 803      84.131   5.037  15.616  1.00  0.00     0.277 HD
BRANCH  26  29
ATOM     29  C1  5SF A 803      82.987   6.600  15.028  1.00  0.00     0.178 C 
ATOM     30  C2  5SF A 803      81.897   5.635  15.440  1.00  0.00     0.039 C 
ATOM     31  C   5SF A 803      82.878   6.979  13.575  1.00  0.00     0.039 C 
ENDBRANCH  26  29
ENDBRANCH  25  26
ENDBRANCH  24  25
ENDBRANCH  13  24
ENDBRANCH   7  13
BRANCH   5  32
ATOM     32  C13 5SF A 803      81.718   5.407   7.640  1.00  0.00     0.026 A 
ATOM     33  C14 5SF A 803      81.940   6.748   7.314  1.00  0.00     0.122 A 
ATOM     34  N4  5SF A 803      81.789   6.977   6.019  1.00  0.00    -0.310 N 
ATOM     35  N5  5SF A 803      81.452   5.756   5.488  1.00  0.00    -0.307 N 
ATOM     36  H4  5SF A 803      81.898   7.864   5.525  1.00  0.00     0.186 HD
ATOM     37  C15 5SF A 803      81.405   4.819   6.443  1.00  0.00     0.124 A 
ATOM     38  C16 5SF A 803      81.196   5.588   4.063  1.00  0.00     0.177 C 
ENDBRANCH   5  32
TORSDOF 9
ENDMDL
MODEL 21
REMARK VINA RESULT:    -3.832      3.334      9.196
REMARK INTER + INTRA:          -6.256
REMARK INTER:                  -5.922
REMARK INTRA:                  -0.334
REMARK UNBOUND:                -0.408
REMARK  9 active torsions:
REMARK  status: ('A' for Active; 'I' for Inactive)
REMARK    1  A    between atoms: C1_1  and  N_26 
REMARK    2  A    between atoms: C3_3  and  C4_25 
REMARK    3  A    between atoms: C3_3  and  N_26 
REMARK    4  A    between atoms: C11_8  and  C13_10 
REMARK    5  A    between atoms: C19_14  and  O1_19 
REMARK    6  A    between atoms: C21_16  and  O_21 
REMARK    7  A    between atoms: C17_23  and  N1_24 
REMARK    8  A    between atoms: N1_24  and  C5_28 
REMARK    9  A    between atoms: N1_24  and  C4_25 
ROOT
ATOM      1  C7  5SF A 803      81.687   2.805  11.519  1.00  0.00     0.034 A 
ATOM      2  C8  5SF A 803      82.909   3.138  12.138  1.00  0.00     0.059 A 
ATOM      3  C9  5SF A 803      84.082   3.178  11.362  1.00  0.00     0.061 A 
ATOM      4  C10 5SF A 803      84.005   2.953   9.972  1.00  0.00     0.061 A 
ATOM      5  C11 5SF A 803      85.308   3.578  13.262  1.00  0.00     0.061 A 
ATOM      6  C12 5SF A 803      84.139   3.550  14.025  1.00  0.00     0.119 A 
ATOM      7  C5  5SF A 803      82.777   2.630   9.370  1.00  0.00     0.037 A 
ATOM      8  N2  5SF A 803      85.298   3.403  11.950  1.00  0.00    -0.352 N 
ATOM      9  H2  5SF A 803      86.157   3.433  11.402  1.00  0.00     0.166 HD
ATOM     10  N3  5SF A 803      82.950   3.350  13.492  1.00  0.00    -0.362 N 
ATOM     11  H3  5SF A 803      82.101   3.354  14.059  1.00  0.00     0.165 HD
ATOM     12  C6  5SF A 803      81.628   2.562  10.178  1.00  0.00     0.032 A 
ENDROOT
BRANCH   7  13
ATOM     13  N1  5SF A 803      82.716   2.284   7.996  1.00  0.00    -0.345 N 
BRANCH  13  14
ATOM     14  C17 5SF A 803      83.775   1.539   7.409  1.00  0.00     0.040 A 
ATOM     15  C22 5SF A 803      84.720   0.947   8.246  1.00  0.00     0.066 A 
ATOM     16  C21 5SF A 803      85.812   0.307   7.680  1.00  0.00     0.073 A 
ATOM     17  C20 5SF A 803      85.968   0.242   6.304  1.00  0.00     0.073 A 
ATOM     18  C19 5SF A 803      85.023   0.843   5.486  1.00  0.00     0.073 A 
ATOM     19  C18 5SF A 803      83.903   1.466   6.023  1.00  0.00     0.066 A 
BRANCH  16  20
ATOM     20  O   5SF A 803      86.675  -0.221   8.608  1.00  0.00    -0.356 OA
ATOM     21  C23 5SF A 803      87.388   0.663   9.462  1.00  0.00     0.210 C 
ENDBRANCH  16  20
BRANCH  18  22
ATOM     22  O1  5SF A 803      85.083   0.856   4.114  1.00  0.00    -0.356 OA
ATOM     23  C24 5SF A 803      84.147   0.097   3.359  1.00  0.00     0.210 C 
ENDBRANCH  18  22
ENDBRANCH  13  14
BRANCH  13  24
ATOM     24  C4  5SF A 803      81.770   2.896   7.045  1.00  0.00     0.157 C 
BRANCH  24  25
ATOM     25  C3  5SF A 803      81.840   4.403   7.244  1.00  0.00     0.253 C 
BRANCH  25  26
ATOM     26  N   5SF A 803      82.526   5.054   6.115  1.00  0.00    -0.070 N 
ATOM     27  H   5SF A 803      83.516   4.814   6.161  1.00  0.00     0.277 HD
ATOM     28  H   5SF A 803      82.360   6.056   6.207  1.00  0.00     0.277 HD
BRANCH  26  29
ATOM     29  C1  5SF A 803      82.011   4.653   4.791  1.00  0.00     0.178 C 
ATOM     30  C2  5SF A 803      83.161   4.584   3.811  1.00  0.00     0.039 C 
ATOM     31  C   5SF A 803      80.932   5.593   4.321  1.00  0.00     0.039 C 
ENDBRANCH  26  29
ENDBRANCH  25  26
ENDBRANCH  24  25
ENDBRANCH  13  24
ENDBRANCH   7  13
BRANCH   5  32
ATOM     32  C13 5SF A 803      86.631   3.832  13.885  1.00  0.00     0.026 A 
ATOM     33  C14 5SF A 803      87.006   4.894  14.712  1.00  0.00     0.122 A 
ATOM     34  N4  5SF A 803      88.223   4.733  15.208  1.00  0.00    -0.310 N 
ATOM     35  N5  5SF A 803      88.654   3.538  14.686  1.00  0.00    -0.307 N 
ATOM     36  H4  5SF A 803      88.728   5.357  15.838  1.00  0.00     0.186 HD
ATOM     37  C15 5SF A 803      87.717   2.997  13.898  1.00  0.00     0.124 A 
ATOM     38  C16 5SF A 803      89.972   3.000  14.999  1.00  0.00     0.177 C 
ENDBRANCH   5  32
TORSDOF 9
ENDMDL
MODEL 22
REMARK VINA RESULT:    -3.827      2.843      5.349
REMARK INTER + INTRA:          -6.248
REMARK INTER:                  -5.771
REMARK INTRA:                  -0.476
REMARK UNBOUND:                -0.408
REMARK  9 active torsions:
REMARK  status: ('A' for Active; 'I' for Inactive)
REMARK    1  A    between atoms: C1_1  and  N_26 
REMARK    2  A    between atoms: C3_3  and  C4_25 
REMARK    3  A    between atoms: C3_3  and  N_26 
REMARK    4  A    between atoms: C11_8  and  C13_10 
REMARK    5  A    between atoms: C19_14  and  O1_19 
REMARK    6  A    between atoms: C21_16  and  O_21 
REMARK    7  A    between atoms: C17_23  and  N1_24 
REMARK    8  A    between atoms: N1_24  and  C5_28 
REMARK    9  A    between atoms: N1_24  and  C4_25 
ROOT
ATOM      1  C7  5SF A 803      82.964   6.251  10.516  1.00  0.00     0.034 A 
ATOM      2  C8  5SF A 803      82.524   5.460   9.435  1.00  0.00     0.059 A 
ATOM      3  C9  5SF A 803      82.940   4.118   9.353  1.00  0.00     0.061 A 
ATOM      4  C10 5SF A 803      83.733   3.570  10.383  1.00  0.00     0.061 A 
ATOM      5  C11 5SF A 803      81.889   3.933   7.320  1.00  0.00     0.061 A 
ATOM      6  C12 5SF A 803      81.468   5.260   7.413  1.00  0.00     0.119 A 
ATOM      7  C5  5SF A 803      84.156   4.371  11.458  1.00  0.00     0.037 A 
ATOM      8  N2  5SF A 803      82.610   3.353   8.267  1.00  0.00    -0.352 N 
ATOM      9  H2  5SF A 803      82.906   2.380   8.191  1.00  0.00     0.166 HD
ATOM     10  N3  5SF A 803      81.755   6.023   8.450  1.00  0.00    -0.362 N 
ATOM     11  H3  5SF A 803      81.422   6.986   8.515  1.00  0.00     0.165 HD
ATOM     12  C6  5SF A 803      83.752   5.718  11.494  1.00  0.00     0.032 A 
ENDROOT
BRANCH   7  13
ATOM     13  N1  5SF A 803      85.050   3.858  12.431  1.00  0.00    -0.345 N 
BRANCH  13  14
ATOM     14  C17 5SF A 803      86.171   3.086  12.021  1.00  0.00     0.040 A 
ATOM     15  C22 5SF A 803      86.247   2.672  10.692  1.00  0.00     0.066 A 
ATOM     16  C21 5SF A 803      87.281   1.832  10.307  1.00  0.00     0.073 A 
ATOM     17  C20 5SF A 803      88.237   1.412  11.219  1.00  0.00     0.073 A 
ATOM     18  C19 5SF A 803      88.142   1.827  12.539  1.00  0.00     0.073 A 
ATOM     19  C18 5SF A 803      87.135   2.691  12.947  1.00  0.00     0.066 A 
BRANCH  16  20
ATOM     20  O   5SF A 803      87.236   1.485   8.980  1.00  0.00    -0.356 OA
ATOM     21  C23 5SF A 803      86.045   0.909   8.461  1.00  0.00     0.210 C 
ENDBRANCH  16  20
BRANCH  18  22
ATOM     22  O1  5SF A 803      89.021   1.461  13.530  1.00  0.00    -0.356 OA
ATOM     23  C24 5SF A 803      88.522   0.980  14.772  1.00  0.00     0.210 C 
ENDBRANCH  18  22
ENDBRANCH  13  14
BRANCH  13  24
ATOM     24  C4  5SF A 803      84.745   3.813  13.873  1.00  0.00     0.157 C 
BRANCH  24  25
ATOM     25  C3  5SF A 803      83.568   2.867  14.056  1.00  0.00     0.253 C 
BRANCH  25  26
ATOM     26  N   5SF A 803      82.632   3.378  15.072  1.00  0.00    -0.070 N 
ATOM     27  H   5SF A 803      83.159   3.571  15.924  1.00  0.00     0.277 HD
ATOM     28  H   5SF A 803      81.920   2.660  15.205  1.00  0.00     0.277 HD
BRANCH  26  29
ATOM     29  C1  5SF A 803      81.927   4.611  14.669  1.00  0.00     0.178 C 
ATOM     30  C2  5SF A 803      81.687   5.467  15.893  1.00  0.00     0.039 C 
ATOM     31  C   5SF A 803      80.644   4.293  13.949  1.00  0.00     0.039 C 
ENDBRANCH  26  29
ENDBRANCH  25  26
ENDBRANCH  24  25
ENDBRANCH  13  24
ENDBRANCH   7  13
BRANCH   5  32
ATOM     32  C13 5SF A 803      81.529   3.089   6.153  1.00  0.00     0.026 A 
ATOM     33  C14 5SF A 803      80.815   3.457   5.010  1.00  0.00     0.122 A 
ATOM     34  N4  5SF A 803      80.798   2.493   4.102  1.00  0.00    -0.310 N 
ATOM     35  N5  5SF A 803      81.512   1.468   4.672  1.00  0.00    -0.307 N 
ATOM     36  H4  5SF A 803      80.353   2.508   3.184  1.00  0.00     0.186 HD
ATOM     37  C15 5SF A 803      81.948   1.812   5.890  1.00  0.00     0.124 A 
ATOM     38  C16 5SF A 803      81.724   0.205   3.975  1.00  0.00     0.177 C 
ENDBRANCH   5  32
TORSDOF 9
ENDMDL
MODEL 23
REMARK VINA RESULT:    -3.789      3.677      8.985
REMARK INTER + INTRA:          -6.191
REMARK INTER:                  -5.366
REMARK INTRA:                  -0.825
REMARK UNBOUND:                -0.408
REMARK  9 active torsions:
REMARK  status: ('A' for Active; 'I' for Inactive)
REMARK    1  A    between atoms: C1_1  and  N_26 
REMARK    2  A    between atoms: C3_3  and  C4_25 
REMARK    3  A    between atoms: C3_3  and  N_26 
REMARK    4  A    between atoms: C11_8  and  C13_10 
REMARK    5  A    between atoms: C19_14  and  O1_19 
REMARK    6  A    between atoms: C21_16  and  O_21 
REMARK    7  A    between atoms: C17_23  and  N1_24 
REMARK    8  A    between atoms: N1_24  and  C5_28 
REMARK    9  A    between atoms: N1_24  and  C4_25 
ROOT
ATOM      1  C7  5SF A 803      81.623   2.923  11.534  1.00  0.00     0.034 A 
ATOM      2  C8  5SF A 803      82.846   3.242  12.160  1.00  0.00     0.059 A 
ATOM      3  C9  5SF A 803      84.011   3.341  11.379  1.00  0.00     0.061 A 
ATOM      4  C10 5SF A 803      83.926   3.188   9.979  1.00  0.00     0.061 A 
ATOM      5  C11 5SF A 803      85.247   3.659  13.288  1.00  0.00     0.061 A 
ATOM      6  C12 5SF A 803      84.085   3.573  14.057  1.00  0.00     0.119 A 
ATOM      7  C5  5SF A 803      82.697   2.879   9.370  1.00  0.00     0.037 A 
ATOM      8  N2  5SF A 803      85.228   3.553  11.968  1.00  0.00    -0.352 N 
ATOM      9  H2  5SF A 803      86.083   3.625  11.416  1.00  0.00     0.166 HD
ATOM     10  N3  5SF A 803      82.894   3.383  13.523  1.00  0.00    -0.362 N 
ATOM     11  H3  5SF A 803      82.051   3.343  14.096  1.00  0.00     0.165 HD
ATOM     12  C6  5SF A 803      81.556   2.751  10.182  1.00  0.00     0.032 A 
ENDROOT
BRANCH   7  13
ATOM     13  N1  5SF A 803      82.629   2.606   7.980  1.00  0.00    -0.345 N 
BRANCH  13  14
ATOM     14  C17 5SF A 803      83.627   1.796   7.372  1.00  0.00     0.040 A 
ATOM     15  C22 5SF A 803      84.512   1.097   8.191  1.00  0.00     0.066 A 
ATOM     16  C21 5SF A 803      85.552   0.389   7.608  1.00  0.00     0.073 A 
ATOM     17  C20 5SF A 803      85.714   0.361   6.232  1.00  0.00     0.073 A 
ATOM     18  C19 5SF A 803      84.829   1.068   5.432  1.00  0.00     0.073 A 
ATOM     19  C18 5SF A 803      83.761   1.763   5.985  1.00  0.00     0.066 A 
BRANCH  16  20
ATOM     20  O   5SF A 803      86.360  -0.243   8.520  1.00  0.00    -0.356 OA
ATOM     21  C23 5SF A 803      87.236   0.541   9.319  1.00  0.00     0.210 C 
ENDBRANCH  16  20
BRANCH  18  22
ATOM     22  O1  5SF A 803      84.902   1.126   4.061  1.00  0.00    -0.356 OA
ATOM     23  C24 5SF A 803      84.104   0.250   3.275  1.00  0.00     0.210 C 
ENDBRANCH  18  22
ENDBRANCH  13  14
BRANCH  13  24
ATOM     24  C4  5SF A 803      81.759   3.345   7.048  1.00  0.00     0.157 C 
BRANCH  24  25
ATOM     25  C3  5SF A 803      81.947   4.827   7.333  1.00  0.00     0.253 C 
BRANCH  25  26
ATOM     26  N   5SF A 803      80.708   5.425   7.859  1.00  0.00    -0.070 N 
ATOM     27  H   5SF A 803      80.196   4.705   8.369  1.00  0.00     0.277 HD
ATOM     28  H   5SF A 803      80.189   5.782   7.057  1.00  0.00     0.277 HD
BRANCH  26  29
ATOM     29  C1  5SF A 803      80.933   6.568   8.766  1.00  0.00     0.178 C 
ATOM     30  C2  5SF A 803      82.420   6.799   8.914  1.00  0.00     0.039 C 
ATOM     31  C   5SF A 803      80.268   6.343  10.098  1.00  0.00     0.039 C 
ENDBRANCH  26  29
ENDBRANCH  25  26
ENDBRANCH  24  25
ENDBRANCH  13  24
ENDBRANCH   7  13
BRANCH   5  32
ATOM     32  C13 5SF A 803      86.571   3.899  13.913  1.00  0.00     0.026 A 
ATOM     33  C14 5SF A 803      86.965   4.975  14.713  1.00  0.00     0.122 A 
ATOM     34  N4  5SF A 803      88.175   4.800  15.223  1.00  0.00    -0.310 N 
ATOM     35  N5  5SF A 803      88.583   3.582  14.735  1.00  0.00    -0.307 N 
ATOM     36  H4  5SF A 803      88.689   5.429  15.839  1.00  0.00     0.186 HD
ATOM     37  C15 5SF A 803      87.638   3.041  13.956  1.00  0.00     0.124 A 
ATOM     38  C16 5SF A 803      89.886   3.023  15.072  1.00  0.00     0.177 C 
ENDBRANCH   5  32
TORSDOF 9
ENDMDL
MODEL 24
REMARK VINA RESULT:    -3.789      3.509      8.787
REMARK INTER + INTRA:          -6.190
REMARK INTER:                  -6.634
REMARK INTRA:                   0.444
REMARK UNBOUND:                -0.408
REMARK  9 active torsions:
REMARK  status: ('A' for Active; 'I' for Inactive)
REMARK    1  A    between atoms: C1_1  and  N_26 
REMARK    2  A    between atoms: C3_3  and  C4_25 
REMARK    3  A    between atoms: C3_3  and  N_26 
REMARK    4  A    between atoms: C11_8  and  C13_10 
REMARK    5  A    between atoms: C19_14  and  O1_19 
REMARK    6  A    between atoms: C21_16  and  O_21 
REMARK    7  A    between atoms: C17_23  and  N1_24 
REMARK    8  A    between atoms: N1_24  and  C5_28 
REMARK    9  A    between atoms: N1_24  and  C4_25 
ROOT
ATOM      1  C7  5SF A 803      84.648   4.893  11.354  1.00  0.00     0.034 A 
ATOM      2  C8  5SF A 803      85.658   4.371  12.188  1.00  0.00     0.059 A 
ATOM      3  C9  5SF A 803      86.063   3.035  12.020  1.00  0.00     0.061 A 
ATOM      4  C10 5SF A 803      85.504   2.263  10.980  1.00  0.00     0.061 A 
ATOM      5  C11 5SF A 803      87.438   3.237  13.848  1.00  0.00     0.061 A 
ATOM      6  C12 5SF A 803      87.042   4.566  14.002  1.00  0.00     0.119 A 
ATOM      7  C5  5SF A 803      84.503   2.802  10.153  1.00  0.00     0.037 A 
ATOM      8  N2  5SF A 803      86.971   2.470  12.875  1.00  0.00    -0.352 N 
ATOM      9  H2  5SF A 803      87.274   1.502  12.768  1.00  0.00     0.166 HD
ATOM     10  N3  5SF A 803      86.181   5.148  13.190  1.00  0.00    -0.362 N 
ATOM     11  H3  5SF A 803      85.916   6.127  13.302  1.00  0.00     0.165 HD
ATOM     12  C6  5SF A 803      84.094   4.130  10.369  1.00  0.00     0.032 A 
ENDROOT
BRANCH   7  13
ATOM     13  N1  5SF A 803      83.853   1.993   9.186  1.00  0.00    -0.345 N 
BRANCH  13  14
ATOM     14  C17 5SF A 803      84.627   1.266   8.241  1.00  0.00     0.040 A 
ATOM     15  C22 5SF A 803      85.747   0.566   8.689  1.00  0.00     0.066 A 
ATOM     16  C21 5SF A 803      86.565  -0.059   7.761  1.00  0.00     0.073 A 
ATOM     17  C20 5SF A 803      86.279  -0.005   6.406  1.00  0.00     0.073 A 
ATOM     18  C19 5SF A 803      85.166   0.701   5.976  1.00  0.00     0.073 A 
ATOM     19  C18 5SF A 803      84.312   1.313   6.884  1.00  0.00     0.066 A 
BRANCH  16  20
ATOM     20  O   5SF A 803      87.640  -0.699   8.327  1.00  0.00    -0.356 OA
ATOM     21  C23 5SF A 803      88.270  -0.113   9.458  1.00  0.00     0.210 C 
ENDBRANCH  16  20
BRANCH  18  22
ATOM     22  O1  5SF A 803      84.795   0.835   4.660  1.00  0.00    -0.356 OA
ATOM     23  C24 5SF A 803      83.657   1.619   4.324  1.00  0.00     0.210 C 
ENDBRANCH  18  22
ENDBRANCH  13  14
BRANCH  13  24
ATOM     24  C4  5SF A 803      82.411   2.078   8.892  1.00  0.00     0.157 C 
BRANCH  24  25
ATOM     25  C3  5SF A 803      82.214   3.237   7.927  1.00  0.00     0.253 C 
BRANCH  25  26
ATOM     26  N   5SF A 803      80.789   3.589   7.808  1.00  0.00    -0.070 N 
ATOM     27  H   5SF A 803      80.257   2.990   8.439  1.00  0.00     0.277 HD
ATOM     28  H   5SF A 803      80.533   3.455   6.830  1.00  0.00     0.277 HD
BRANCH  26  29
ATOM     29  C1  5SF A 803      80.491   4.996   8.141  1.00  0.00     0.178 C 
ATOM     30  C2  5SF A 803      81.619   5.873   7.645  1.00  0.00     0.039 C 
ATOM     31  C   5SF A 803      80.258   5.168   9.618  1.00  0.00     0.039 C 
ENDBRANCH  26  29
ENDBRANCH  25  26
ENDBRANCH  24  25
ENDBRANCH  13  24
ENDBRANCH   7  13
BRANCH   5  32
ATOM     32  C13 5SF A 803      88.429   2.616  14.761  1.00  0.00     0.026 A 
ATOM     33  C14 5SF A 803      88.657   1.257  14.991  1.00  0.00     0.122 A 
ATOM     34  N4  5SF A 803      89.715   1.052  15.761  1.00  0.00    -0.310 N 
ATOM     35  N5  5SF A 803      90.184   2.312  16.046  1.00  0.00    -0.307 N 
ATOM     36  H4  5SF A 803      90.097   0.159  16.073  1.00  0.00     0.186 HD
ATOM     37  C15 5SF A 803      89.426   3.246  15.458  1.00  0.00     0.124 A 
ATOM     38  C16 5SF A 803      91.359   2.517  16.884  1.00  0.00     0.177 C 
ENDBRANCH   5  32
TORSDOF 9
ENDMDL
MODEL 25
REMARK VINA RESULT:    -3.773      3.771      9.136
REMARK INTER + INTRA:          -6.166
REMARK INTER:                  -5.344
REMARK INTRA:                  -0.822
REMARK UNBOUND:                -0.408
REMARK  9 active torsions:
REMARK  status: ('A' for Active; 'I' for Inactive)
REMARK    1  A    between atoms: C1_1  and  N_26 
REMARK    2  A    between atoms: C3_3  and  C4_25 
REMARK    3  A    between atoms: C3_3  and  N_26 
REMARK    4  A    between atoms: C11_8  and  C13_10 
REMARK    5  A    between atoms: C19_14  and  O1_19 
REMARK    6  A    between atoms: C21_16  and  O_21 
REMARK    7  A    between atoms: C17_23  and  N1_24 
REMARK    8  A    between atoms: N1_24  and  C5_28 
REMARK    9  A    between atoms: N1_24  and  C4_25 
ROOT
ATOM      1  C7  5SF A 803      81.371   3.139  11.739  1.00  0.00     0.034 A 
ATOM      2  C8  5SF A 803      82.602   3.440  12.357  1.00  0.00     0.059 A 
ATOM      3  C9  5SF A 803      83.766   3.507  11.570  1.00  0.00     0.061 A 
ATOM      4  C10 5SF A 803      83.673   3.339  10.172  1.00  0.00     0.061 A 
ATOM      5  C11 5SF A 803      85.016   3.824  13.470  1.00  0.00     0.061 A 
ATOM      6  C12 5SF A 803      83.856   3.770  14.245  1.00  0.00     0.119 A 
ATOM      7  C5  5SF A 803      82.436   3.046   9.572  1.00  0.00     0.037 A 
ATOM      8  N2  5SF A 803      84.990   3.702  12.152  1.00  0.00    -0.352 N 
ATOM      9  H2  5SF A 803      85.843   3.750  11.596  1.00  0.00     0.166 HD
ATOM     10  N3  5SF A 803      82.659   3.598  13.718  1.00  0.00    -0.362 N 
ATOM     11  H3  5SF A 803      81.817   3.582  14.294  1.00  0.00     0.165 HD
ATOM     12  C6  5SF A 803      81.296   2.951  10.390  1.00  0.00     0.032 A 
ENDROOT
BRANCH   7  13
ATOM     13  N1  5SF A 803      82.357   2.757   8.186  1.00  0.00    -0.345 N 
BRANCH  13  14
ATOM     14  C17 5SF A 803      83.433   2.084   7.545  1.00  0.00     0.040 A 
ATOM     15  C22 5SF A 803      83.580   2.220   6.165  1.00  0.00     0.066 A 
ATOM     16  C21 5SF A 803      84.562   1.485   5.518  1.00  0.00     0.073 A 
ATOM     17  C20 5SF A 803      85.396   0.632   6.222  1.00  0.00     0.073 A 
ATOM     18  C19 5SF A 803      85.231   0.502   7.593  1.00  0.00     0.073 A 
ATOM     19  C18 5SF A 803      84.276   1.246   8.273  1.00  0.00     0.066 A 
BRANCH  16  20
ATOM     20  O   5SF A 803      84.595   1.696   4.162  1.00  0.00    -0.356 OA
ATOM     21  C23 5SF A 803      84.175   2.955   3.653  1.00  0.00     0.210 C 
ENDBRANCH  16  20
BRANCH  18  22
ATOM     22  O1  5SF A 803      85.988  -0.324   8.389  1.00  0.00    -0.356 OA
ATOM     23  C24 5SF A 803      87.322   0.042   8.720  1.00  0.00     0.210 C 
ENDBRANCH  18  22
ENDBRANCH  13  14
BRANCH  13  24
ATOM     24  C4  5SF A 803      81.365   3.367   7.283  1.00  0.00     0.157 C 
BRANCH  24  25
ATOM     25  C3  5SF A 803      81.556   4.875   7.353  1.00  0.00     0.253 C 
BRANCH  25  26
ATOM     26  N   5SF A 803      80.390   5.527   7.972  1.00  0.00    -0.070 N 
ATOM     27  H   5SF A 803      79.937   4.855   8.590  1.00  0.00     0.277 HD
ATOM     28  H   5SF A 803      79.783   5.831   7.210  1.00  0.00     0.277 HD
BRANCH  26  29
ATOM     29  C1  5SF A 803      80.725   6.731   8.758  1.00  0.00     0.178 C 
ATOM     30  C2  5SF A 803      82.215   6.979   8.677  1.00  0.00     0.039 C 
ATOM     31  C   5SF A 803      80.259   6.596  10.183  1.00  0.00     0.039 C 
ENDBRANCH  26  29
ENDBRANCH  25  26
ENDBRANCH  24  25
ENDBRANCH  13  24
ENDBRANCH   7  13
BRANCH   5  32
ATOM     32  C13 5SF A 803      86.347   4.045  14.088  1.00  0.00     0.026 A 
ATOM     33  C14 5SF A 803      86.797   5.169  14.786  1.00  0.00     0.122 A 
ATOM     34  N4  5SF A 803      87.991   4.973  15.326  1.00  0.00    -0.310 N 
ATOM     35  N5  5SF A 803      88.329   3.692  14.964  1.00  0.00    -0.307 N 
ATOM     36  H4  5SF A 803      88.537   5.628  15.887  1.00  0.00     0.186 HD
ATOM     37  C15 5SF A 803      87.360   3.135  14.227  1.00  0.00     0.124 A 
ATOM     38  C16 5SF A 803      89.594   3.093  15.371  1.00  0.00     0.177 C 
ENDBRANCH   5  32
TORSDOF 9
ENDMDL
MODEL 26
REMARK VINA RESULT:    -3.742      3.437      9.274
REMARK INTER + INTRA:          -6.119
REMARK INTER:                  -5.687
REMARK INTRA:                  -0.432
REMARK UNBOUND:                -0.408
REMARK  9 active torsions:
REMARK  status: ('A' for Active; 'I' for Inactive)
REMARK    1  A    between atoms: C1_1  and  N_26 
REMARK    2  A    between atoms: C3_3  and  C4_25 
REMARK    3  A    between atoms: C3_3  and  N_26 
REMARK    4  A    between atoms: C11_8  and  C13_10 
REMARK    5  A    between atoms: C19_14  and  O1_19 
REMARK    6  A    between atoms: C21_16  and  O_21 
REMARK    7  A    between atoms: C17_23  and  N1_24 
REMARK    8  A    between atoms: N1_24  and  C5_28 
REMARK    9  A    between atoms: N1_24  and  C4_25 
ROOT
ATOM      1  C7  5SF A 803      81.511   2.801  11.599  1.00  0.00     0.034 A 
ATOM      2  C8  5SF A 803      82.717   3.176  12.227  1.00  0.00     0.059 A 
ATOM      3  C9  5SF A 803      83.874   3.346  11.445  1.00  0.00     0.061 A 
ATOM      4  C10 5SF A 803      83.794   3.204  10.043  1.00  0.00     0.061 A 
ATOM      5  C11 5SF A 803      85.095   3.707  13.355  1.00  0.00     0.061 A 
ATOM      6  C12 5SF A 803      83.942   3.551  14.125  1.00  0.00     0.119 A 
ATOM      7  C5  5SF A 803      82.582   2.838   9.434  1.00  0.00     0.037 A 
ATOM      8  N2  5SF A 803      85.079   3.614  12.035  1.00  0.00    -0.352 N 
ATOM      9  H2  5SF A 803      85.928   3.738  11.482  1.00  0.00     0.166 HD
ATOM     10  N3  5SF A 803      82.761   3.305  13.592  1.00  0.00    -0.362 N 
ATOM     11  H3  5SF A 803      81.922   3.214  14.165  1.00  0.00     0.165 HD
ATOM     12  C6  5SF A 803      81.451   2.641  10.246  1.00  0.00     0.032 A 
ENDROOT
BRANCH   7  13
ATOM     13  N1  5SF A 803      82.525   2.577   8.041  1.00  0.00    -0.345 N 
BRANCH  13  14
ATOM     14  C17 5SF A 803      83.586   1.869   7.413  1.00  0.00     0.040 A 
ATOM     15  C22 5SF A 803      83.427   1.458   6.090  1.00  0.00     0.066 A 
ATOM     16  C21 5SF A 803      84.412   0.678   5.505  1.00  0.00     0.073 A 
ATOM     17  C20 5SF A 803      85.549   0.314   6.210  1.00  0.00     0.073 A 
ATOM     18  C19 5SF A 803      85.688   0.725   7.528  1.00  0.00     0.073 A 
ATOM     19  C18 5SF A 803      84.732   1.530   8.132  1.00  0.00     0.066 A 
BRANCH  16  20
ATOM     20  O   5SF A 803      84.131   0.328   4.208  1.00  0.00    -0.356 OA
ATOM     21  C23 5SF A 803      82.772   0.226   3.805  1.00  0.00     0.210 C 
ENDBRANCH  16  20
BRANCH  18  22
ATOM     22  O1  5SF A 803      86.761   0.411   8.326  1.00  0.00    -0.356 OA
ATOM     23  C24 5SF A 803      87.117   1.272   9.400  1.00  0.00     0.210 C 
ENDBRANCH  18  22
ENDBRANCH  13  14
BRANCH  13  24
ATOM     24  C4  5SF A 803      81.583   3.245   7.126  1.00  0.00     0.157 C 
BRANCH  24  25
ATOM     25  C3  5SF A 803      81.755   4.745   7.315  1.00  0.00     0.253 C 
BRANCH  25  26
ATOM     26  N   5SF A 803      82.477   5.341   6.179  1.00  0.00    -0.070 N 
ATOM     27  H   5SF A 803      83.452   5.046   6.227  1.00  0.00     0.277 HD
ATOM     28  H   5SF A 803      82.369   6.353   6.259  1.00  0.00     0.277 HD
BRANCH  26  29
ATOM     29  C1  5SF A 803      81.939   4.956   4.859  1.00  0.00     0.178 C 
ATOM     30  C2  5SF A 803      83.083   4.802   3.882  1.00  0.00     0.039 C 
ATOM     31  C   5SF A 803      80.921   5.954   4.375  1.00  0.00     0.039 C 
ENDBRANCH  26  29
ENDBRANCH  25  26
ENDBRANCH  24  25
ENDBRANCH  13  24
ENDBRANCH   7  13
BRANCH   5  32
ATOM     32  C13 5SF A 803      86.406   4.009  13.981  1.00  0.00     0.026 A 
ATOM     33  C14 5SF A 803      86.752   5.109  14.770  1.00  0.00     0.122 A 
ATOM     34  N4  5SF A 803      87.967   4.991  15.285  1.00  0.00    -0.310 N 
ATOM     35  N5  5SF A 803      88.427   3.786  14.812  1.00  0.00    -0.307 N 
ATOM     36  H4  5SF A 803      88.453   5.648  15.895  1.00  0.00     0.186 HD
ATOM     37  C15 5SF A 803      87.508   3.197  14.036  1.00  0.00     0.124 A 
ATOM     38  C16 5SF A 803      89.752   3.286  15.159  1.00  0.00     0.177 C 
ENDBRANCH   5  32
TORSDOF 9
ENDMDL
MODEL 27
REMARK VINA RESULT:    -3.737      3.042      5.062
REMARK INTER + INTRA:          -6.111
REMARK INTER:                  -4.864
REMARK INTRA:                  -1.247
REMARK UNBOUND:                -0.408
REMARK  9 active torsions:
REMARK  status: ('A' for Active; 'I' for Inactive)
REMARK    1  A    between atoms: C1_1  and  N_26 
REMARK    2  A    between atoms: C3_3  and  C4_25 
REMARK    3  A    between atoms: C3_3  and  N_26 
REMARK    4  A    between atoms: C11_8  and  C13_10 
REMARK    5  A    between atoms: C19_14  and  O1_19 
REMARK    6  A    between atoms: C21_16  and  O_21 
REMARK    7  A    between atoms: C17_23  and  N1_24 
REMARK    8  A    between atoms: N1_24  and  C5_28 
REMARK    9  A    between atoms: N1_24  and  C4_25 
ROOT
ATOM      1  C7  5SF A 803      82.242   5.454   9.824  1.00  0.00     0.034 A 
ATOM      2  C8  5SF A 803      82.487   4.472   8.842  1.00  0.00     0.059 A 
ATOM      3  C9  5SF A 803      83.054   3.243   9.227  1.00  0.00     0.061 A 
ATOM      4  C10 5SF A 803      83.305   2.989  10.592  1.00  0.00     0.061 A 
ATOM      5  C11 5SF A 803      83.159   2.617   7.020  1.00  0.00     0.061 A 
ATOM      6  C12 5SF A 803      82.584   3.833   6.645  1.00  0.00     0.119 A 
ATOM      7  C5  5SF A 803      83.048   3.976  11.558  1.00  0.00     0.037 A 
ATOM      8  N2  5SF A 803      83.393   2.309   8.286  1.00  0.00    -0.352 N 
ATOM      9  H2  5SF A 803      83.807   1.414   8.548  1.00  0.00     0.166 HD
ATOM     10  N3  5SF A 803      82.232   4.751   7.524  1.00  0.00    -0.362 N 
ATOM     11  H3  5SF A 803      81.793   5.626   7.237  1.00  0.00     0.165 HD
ATOM     12  C6  5SF A 803      82.514   5.207  11.139  1.00  0.00     0.032 A 
ENDROOT
BRANCH   7  13
ATOM     13  N1  5SF A 803      83.411   3.770  12.914  1.00  0.00    -0.345 N 
BRANCH  13  14
ATOM     14  C17 5SF A 803      84.768   3.917  13.309  1.00  0.00     0.040 A 
ATOM     15  C22 5SF A 803      85.600   2.799  13.275  1.00  0.00     0.066 A 
ATOM     16  C21 5SF A 803      86.895   2.909  13.757  1.00  0.00     0.073 A 
ATOM     17  C20 5SF A 803      87.371   4.111  14.259  1.00  0.00     0.073 A 
ATOM     18  C19 5SF A 803      86.528   5.212  14.293  1.00  0.00     0.073 A 
ATOM     19  C18 5SF A 803      85.235   5.140  13.791  1.00  0.00     0.066 A 
BRANCH  16  20
ATOM     20  O   5SF A 803      87.606   1.738  13.683  1.00  0.00    -0.356 OA
ATOM     21  C23 5SF A 803      88.925   1.768  13.154  1.00  0.00     0.210 C 
ENDBRANCH  16  20
BRANCH  18  22
ATOM     22  O1  5SF A 803      86.885   6.445  14.782  1.00  0.00    -0.356 OA
ATOM     23  C24 5SF A 803      86.208   6.979  15.913  1.00  0.00     0.210 C 
ENDBRANCH  18  22
ENDBRANCH  13  14
BRANCH  13  24
ATOM     24  C4  5SF A 803      82.531   3.120  13.901  1.00  0.00     0.157 C 
BRANCH  24  25
ATOM     25  C3  5SF A 803      81.639   4.201  14.493  1.00  0.00     0.253 C 
BRANCH  25  26
ATOM     26  N   5SF A 803      82.004   4.480  15.892  1.00  0.00    -0.070 N 
ATOM     27  H   5SF A 803      83.020   4.436  15.973  1.00  0.00     0.277 HD
ATOM     28  H   5SF A 803      81.534   3.780  16.465  1.00  0.00     0.277 HD
BRANCH  26  29
ATOM     29  C1  5SF A 803      81.556   5.802  16.375  1.00  0.00     0.178 C 
ATOM     30  C2  5SF A 803      82.416   6.877  15.750  1.00  0.00     0.039 C 
ATOM     31  C   5SF A 803      81.583   5.868  17.879  1.00  0.00     0.039 C 
ENDBRANCH  26  29
ENDBRANCH  25  26
ENDBRANCH  24  25
ENDBRANCH  13  24
ENDBRANCH   7  13
BRANCH   5  32
ATOM     32  C13 5SF A 803      83.521   1.591   6.011  1.00  0.00     0.026 A 
ATOM     33  C14 5SF A 803      82.675   0.911   5.131  1.00  0.00     0.122 A 
ATOM     34  N4  5SF A 803      83.350   0.168   4.267  1.00  0.00    -0.310 N 
ATOM     35  N5  5SF A 803      84.669   0.362   4.598  1.00  0.00    -0.307 N 
ATOM     36  H4  5SF A 803      82.974  -0.419   3.522  1.00  0.00     0.186 HD
ATOM     37  C15 5SF A 803      84.780   1.204   5.633  1.00  0.00     0.124 A 
ATOM     38  C16 5SF A 803      85.745  -0.296   3.867  1.00  0.00     0.177 C 
ENDBRANCH   5  32
TORSDOF 9
ENDMDL
MODEL 28
REMARK VINA RESULT:    -3.656      3.862      8.850
REMARK INTER + INTRA:          -5.987
REMARK INTER:                  -6.095
REMARK INTRA:                   0.108
REMARK UNBOUND:                -0.408
REMARK  9 active torsions:
REMARK  status: ('A' for Active; 'I' for Inactive)
REMARK    1  A    between atoms: C1_1  and  N_26 
REMARK    2  A    between atoms: C3_3  and  C4_25 
REMARK    3  A    between atoms: C3_3  and  N_26 
REMARK    4  A    between atoms: C11_8  and  C13_10 
REMARK    5  A    between atoms: C19_14  and  O1_19 
REMARK    6  A    between atoms: C21_16  and  O_21 
REMARK    7  A    between atoms: C17_23  and  N1_24 
REMARK    8  A    between atoms: N1_24  and  C5_28 
REMARK    9  A    between atoms: N1_24  and  C4_25 
ROOT
ATOM      1  C7  5SF A 803      87.127   2.547  10.283  1.00  0.00     0.034 A 
ATOM      2  C8  5SF A 803      87.588   2.230  11.577  1.00  0.00     0.059 A 
ATOM      3  C9  5SF A 803      86.855   2.673  12.693  1.00  0.00     0.061 A 
ATOM      4  C10 5SF A 803      85.641   3.365  12.499  1.00  0.00     0.061 A 
ATOM      5  C11 5SF A 803      88.485   1.835  14.077  1.00  0.00     0.061 A 
ATOM      6  C12 5SF A 803      89.201   1.386  12.967  1.00  0.00     0.119 A 
ATOM      7  C5  5SF A 803      85.193   3.665  11.202  1.00  0.00     0.037 A 
ATOM      8  N2  5SF A 803      87.326   2.465  13.962  1.00  0.00    -0.352 N 
ATOM      9  H2  5SF A 803      86.808   2.782  14.781  1.00  0.00     0.166 HD
ATOM     10  N3  5SF A 803      88.772   1.556  11.731  1.00  0.00    -0.362 N 
ATOM     11  H3  5SF A 803      89.296   1.204  10.929  1.00  0.00     0.165 HD
ATOM     12  C6  5SF A 803      85.965   3.240  10.106  1.00  0.00     0.032 A 
ENDROOT
BRANCH   7  13
ATOM     13  N1  5SF A 803      84.038   4.465  11.004  1.00  0.00    -0.345 N 
BRANCH  13  14
ATOM     14  C17 5SF A 803      83.122   4.135   9.969  1.00  0.00     0.040 A 
ATOM     15  C22 5SF A 803      83.351   2.986   9.213  1.00  0.00     0.066 A 
ATOM     16  C21 5SF A 803      82.523   2.713   8.136  1.00  0.00     0.073 A 
ATOM     17  C20 5SF A 803      81.472   3.556   7.811  1.00  0.00     0.073 A 
ATOM     18  C19 5SF A 803      81.262   4.699   8.568  1.00  0.00     0.073 A 
ATOM     19  C18 5SF A 803      82.057   4.984   9.670  1.00  0.00     0.066 A 
BRANCH  16  20
ATOM     20  O   5SF A 803      82.862   1.564   7.465  1.00  0.00    -0.356 OA
ATOM     21  C23 5SF A 803      83.211   1.650   6.090  1.00  0.00     0.210 C 
ENDBRANCH  16  20
BRANCH  18  22
ATOM     22  O1  5SF A 803      80.265   5.614   8.329  1.00  0.00    -0.356 OA
ATOM     23  C24 5SF A 803      80.597   6.979   8.114  1.00  0.00     0.210 C 
ENDBRANCH  18  22
ENDBRANCH  13  14
BRANCH  13  24
ATOM     24  C4  5SF A 803      83.860   5.799  11.605  1.00  0.00     0.157 C 
BRANCH  24  25
ATOM     25  C3  5SF A 803      82.712   5.699  12.598  1.00  0.00     0.253 C 
BRANCH  25  26
ATOM     26  N   5SF A 803      83.139   5.018  13.832  1.00  0.00    -0.070 N 
ATOM     27  H   5SF A 803      83.349   5.729  14.534  1.00  0.00     0.277 HD
ATOM     28  H   5SF A 803      83.953   4.453  13.591  1.00  0.00     0.277 HD
BRANCH  26  29
ATOM     29  C1  5SF A 803      82.127   4.099  14.389  1.00  0.00     0.178 C 
ATOM     30  C2  5SF A 803      82.702   2.701  14.441  1.00  0.00     0.039 C 
ATOM     31  C   5SF A 803      80.851   4.148  13.592  1.00  0.00     0.039 C 
ENDBRANCH  26  29
ENDBRANCH  25  26
ENDBRANCH  24  25
ENDBRANCH  13  24
ENDBRANCH   7  13
BRANCH   5  32
ATOM     32  C13 5SF A 803      88.979   1.607  15.458  1.00  0.00     0.026 A 
ATOM     33  C14 5SF A 803      89.673   2.495  16.283  1.00  0.00     0.122 A 
ATOM     34  N4  5SF A 803      89.834   2.016  17.507  1.00  0.00    -0.310 N 
ATOM     35  N5  5SF A 803      89.235   0.780  17.476  1.00  0.00    -0.307 N 
ATOM     36  H4  5SF A 803      90.300   2.464  18.297  1.00  0.00     0.186 HD
ATOM     37  C15 5SF A 803      88.726   0.528  16.263  1.00  0.00     0.124 A 
ATOM     38  C16 5SF A 803      89.200  -0.081  18.652  1.00  0.00     0.177 C 
ENDBRANCH   5  32
TORSDOF 9
ENDMDL
MODEL 29
REMARK VINA RESULT:    -3.653      2.787      5.721
REMARK INTER + INTRA:          -5.983
REMARK INTER:                  -6.661
REMARK INTRA:                   0.678
REMARK UNBOUND:                -0.408
REMARK  9 active torsions:
REMARK  status: ('A' for Active; 'I' for Inactive)
REMARK    1  A    between atoms: C1_1  and  N_26 
REMARK    2  A    between atoms: C3_3  and  C4_25 
REMARK    3  A    between atoms: C3_3  and  N_26 
REMARK    4  A    between atoms: C11_8  and  C13_10 
REMARK    5  A    between atoms: C19_14  and  O1_19 
REMARK    6  A    between atoms: C21_16  and  O_21 
REMARK    7  A    between atoms: C17_23  and  N1_24 
REMARK    8  A    between atoms: N1_24  and  C5_28 
REMARK    9  A    between atoms: N1_24  and  C4_25 
ROOT
ATOM      1  C7  5SF A 803      87.392   0.855   9.769  1.00  0.00     0.034 A 
ATOM      2  C8  5SF A 803      86.645   0.867   8.573  1.00  0.00     0.059 A 
ATOM      3  C9  5SF A 803      85.473   1.642   8.505  1.00  0.00     0.061 A 
ATOM      4  C10 5SF A 803      85.103   2.444   9.605  1.00  0.00     0.061 A 
ATOM      5  C11 5SF A 803      85.061   0.806   6.406  1.00  0.00     0.061 A 
ATOM      6  C12 5SF A 803      86.232   0.050   6.475  1.00  0.00     0.119 A 
ATOM      7  C5  5SF A 803      85.863   2.425  10.787  1.00  0.00     0.037 A 
ATOM      8  N2  5SF A 803      84.675   1.599   7.393  1.00  0.00    -0.352 N 
ATOM      9  H2  5SF A 803      83.821   2.153   7.329  1.00  0.00     0.166 HD
ATOM     10  N3  5SF A 803      87.032   0.076   7.523  1.00  0.00    -0.362 N 
ATOM     11  H3  5SF A 803      87.896  -0.466   7.550  1.00  0.00     0.165 HD
ATOM     12  C6  5SF A 803      87.010   1.613  10.838  1.00  0.00     0.032 A 
ENDROOT
BRANCH   7  13
ATOM     13  N1  5SF A 803      85.429   3.135  11.935  1.00  0.00    -0.345 N 
BRANCH  13  14
ATOM     14  C17 5SF A 803      84.042   3.198  12.241  1.00  0.00     0.040 A 
ATOM     15  C22 5SF A 803      83.121   2.951  11.224  1.00  0.00     0.066 A 
ATOM     16  C21 5SF A 803      81.769   3.113  11.486  1.00  0.00     0.073 A 
ATOM     17  C20 5SF A 803      81.327   3.505  12.740  1.00  0.00     0.073 A 
ATOM     18  C19 5SF A 803      82.257   3.754  13.739  1.00  0.00     0.073 A 
ATOM     19  C18 5SF A 803      83.615   3.573  13.514  1.00  0.00     0.066 A 
BRANCH  16  20
ATOM     20  O   5SF A 803      80.968   2.855  10.402  1.00  0.00    -0.356 OA
ATOM     21  C23 5SF A 803      81.470   3.122   9.099  1.00  0.00     0.210 C 
ENDBRANCH  16  20
BRANCH  18  22
ATOM     22  O1  5SF A 803      81.936   4.162  15.011  1.00  0.00    -0.356 OA
ATOM     23  C24 5SF A 803      81.938   5.548  15.329  1.00  0.00     0.210 C 
ENDBRANCH  18  22
ENDBRANCH  13  14
BRANCH  13  24
ATOM     24  C4  5SF A 803      86.285   4.071  12.685  1.00  0.00     0.157 C 
BRANCH  24  25
ATOM     25  C3  5SF A 803      87.020   3.262  13.744  1.00  0.00     0.253 C 
BRANCH  25  26
ATOM     26  N   5SF A 803      88.398   2.964  13.319  1.00  0.00    -0.070 N 
ATOM     27  H   5SF A 803      88.902   3.846  13.223  1.00  0.00     0.277 HD
ATOM     28  H   5SF A 803      88.332   2.452  12.440  1.00  0.00     0.277 HD
BRANCH  26  29
ATOM     29  C1  5SF A 803      89.142   2.104  14.262  1.00  0.00     0.178 C 
ATOM     30  C2  5SF A 803      88.282   0.917  14.634  1.00  0.00     0.039 C 
ATOM     31  C   5SF A 803      89.579   2.880  15.475  1.00  0.00     0.039 C 
ENDBRANCH  26  29
ENDBRANCH  25  26
ENDBRANCH  24  25
ENDBRANCH  13  24
ENDBRANCH   7  13
BRANCH   5  32
ATOM     32  C13 5SF A 803      84.193   0.778   5.203  1.00  0.00     0.026 A 
ATOM     33  C14 5SF A 803      84.389   0.069   4.015  1.00  0.00     0.122 A 
ATOM     34  N4  5SF A 803      83.345   0.158   3.204  1.00  0.00    -0.310 N 
ATOM     35  N5  5SF A 803      82.450   0.952   3.879  1.00  0.00    -0.307 N 
ATOM     36  H4  5SF A 803      83.231  -0.268   2.284  1.00  0.00     0.186 HD
ATOM     37  C15 5SF A 803      82.945   1.326   5.065  1.00  0.00     0.124 A 
ATOM     38  C16 5SF A 803      81.152   1.293   3.309  1.00  0.00     0.177 C 
ENDBRANCH   5  32
TORSDOF 9
ENDMDL
MODEL 30
REMARK VINA RESULT:    -3.623      3.908      9.211
REMARK INTER + INTRA:          -5.937
REMARK INTER:                  -4.713
REMARK INTRA:                  -1.224
REMARK UNBOUND:                -0.408
REMARK  9 active torsions:
REMARK  status: ('A' for Active; 'I' for Inactive)
REMARK    1  A    between atoms: C1_1  and  N_26 
REMARK    2  A    between atoms: C3_3  and  C4_25 
REMARK    3  A    between atoms: C3_3  and  N_26 
REMARK    4  A    between atoms: C11_8  and  C13_10 
REMARK    5  A    between atoms: C19_14  and  O1_19 
REMARK    6  A    between atoms: C21_16  and  O_21 
REMARK    7  A    between atoms: C17_23  and  N1_24 
REMARK    8  A    between atoms: N1_24  and  C5_28 
REMARK    9  A    between atoms: N1_24  and  C4_25 
ROOT
ATOM      1  C7  5SF A 803      84.549   5.689  12.206  1.00  0.00     0.034 A 
ATOM      2  C8  5SF A 803      85.585   5.008  12.878  1.00  0.00     0.059 A 
ATOM      3  C9  5SF A 803      85.610   3.601  12.853  1.00  0.00     0.061 A 
ATOM      4  C10 5SF A 803      84.642   2.900  12.105  1.00  0.00     0.061 A 
ATOM      5  C11 5SF A 803      87.410   3.623  14.280  1.00  0.00     0.061 A 
ATOM      6  C12 5SF A 803      87.388   5.019  14.290  1.00  0.00     0.119 A 
ATOM      7  C5  5SF A 803      83.620   3.595  11.435  1.00  0.00     0.037 A 
ATOM      8  N2  5SF A 803      86.546   2.910  13.575  1.00  0.00    -0.352 N 
ATOM      9  H2  5SF A 803      86.576   1.890  13.569  1.00  0.00     0.166 HD
ATOM     10  N3  5SF A 803      86.511   5.719  13.597  1.00  0.00    -0.362 N 
ATOM     11  H3  5SF A 803      86.520   6.739  13.597  1.00  0.00     0.165 HD
ATOM     12  C6  5SF A 803      83.601   5.000  11.507  1.00  0.00     0.032 A 
ENDROOT
BRANCH   7  13
ATOM     13  N1  5SF A 803      82.576   2.891  10.782  1.00  0.00    -0.345 N 
BRANCH  13  14
ATOM     14  C17 5SF A 803      82.578   2.785   9.365  1.00  0.00     0.040 A 
ATOM     15  C22 5SF A 803      83.685   2.216   8.737  1.00  0.00     0.066 A 
ATOM     16  C21 5SF A 803      83.741   2.203   7.352  1.00  0.00     0.073 A 
ATOM     17  C20 5SF A 803      82.711   2.735   6.591  1.00  0.00     0.073 A 
ATOM     18  C19 5SF A 803      81.620   3.304   7.231  1.00  0.00     0.073 A 
ATOM     19  C18 5SF A 803      81.523   3.306   8.616  1.00  0.00     0.066 A 
BRANCH  16  20
ATOM     20  O   5SF A 803      84.886   1.631   6.858  1.00  0.00    -0.356 OA
ATOM     21  C23 5SF A 803      85.867   1.160   7.772  1.00  0.00     0.210 C 
ENDBRANCH  16  20
BRANCH  18  22
ATOM     22  O1  5SF A 803      80.552   3.874   6.581  1.00  0.00    -0.356 OA
ATOM     23  C24 5SF A 803      80.628   4.121   5.182  1.00  0.00     0.210 C 
ENDBRANCH  18  22
ENDBRANCH  13  14
BRANCH  13  24
ATOM     24  C4  5SF A 803      81.317   2.507  11.445  1.00  0.00     0.157 C 
BRANCH  24  25
ATOM     25  C3  5SF A 803      80.722   3.769  12.050  1.00  0.00     0.253 C 
BRANCH  25  26
ATOM     26  N   5SF A 803      80.344   3.553  13.457  1.00  0.00    -0.070 N 
ATOM     27  H   5SF A 803      80.852   2.739  13.804  1.00  0.00     0.277 HD
ATOM     28  H   5SF A 803      79.333   3.421  13.475  1.00  0.00     0.277 HD
BRANCH  26  29
ATOM     29  C1  5SF A 803      80.643   4.699  14.340  1.00  0.00     0.178 C 
ATOM     30  C2  5SF A 803      80.489   5.983  13.555  1.00  0.00     0.039 C 
ATOM     31  C   5SF A 803      82.016   4.575  14.945  1.00  0.00     0.039 C 
ENDBRANCH  26  29
ENDBRANCH  25  26
ENDBRANCH  24  25
ENDBRANCH  13  24
ENDBRANCH   7  13
BRANCH   5  32
ATOM     32  C13 5SF A 803      88.425   2.862  15.048  1.00  0.00     0.026 A 
ATOM     33  C14 5SF A 803      88.719   1.498  14.973  1.00  0.00     0.122 A 
ATOM     34  N4  5SF A 803      89.782   1.177  15.696  1.00  0.00    -0.310 N 
ATOM     35  N5  5SF A 803      90.186   2.361  16.262  1.00  0.00    -0.307 N 
ATOM     36  H4  5SF A 803      90.206   0.255  15.807  1.00  0.00     0.186 HD
ATOM     37  C15 5SF A 803      89.385   3.366  15.885  1.00  0.00     0.124 A 
ATOM     38  C16 5SF A 803      91.344   2.430  17.145  1.00  0.00     0.177 C 
ENDBRANCH   5  32
TORSDOF 9
ENDMDL
MODEL 31
REMARK VINA RESULT:    -3.585      2.884      5.761
REMARK INTER + INTRA:          -5.880
REMARK INTER:                  -6.436
REMARK INTRA:                   0.556
REMARK UNBOUND:                -0.408
REMARK  9 active torsions:
REMARK  status: ('A' for Active; 'I' for Inactive)
REMARK    1  A    between atoms: C1_1  and  N_26 
REMARK    2  A    between atoms: C3_3  and  C4_25 
REMARK    3  A    between atoms: C3_3  and  N_26 
REMARK    4  A    between atoms: C11_8  and  C13_10 
REMARK    5  A    between atoms: C19_14  and  O1_19 
REMARK    6  A    between atoms: C21_16  and  O_21 
REMARK    7  A    between atoms: C17_23  and  N1_24 
REMARK    8  A    between atoms: N1_24  and  C5_28 
REMARK    9  A    between atoms: N1_24  and  C4_25 
ROOT
ATOM      1  C7  5SF A 803      87.563   0.241   8.836  1.00  0.00     0.034 A 
ATOM      2  C8  5SF A 803      86.641   0.442   7.789  1.00  0.00     0.059 A 
ATOM      3  C9  5SF A 803      85.615   1.392   7.951  1.00  0.00     0.061 A 
ATOM      4  C10 5SF A 803      85.568   2.171   9.127  1.00  0.00     0.061 A 
ATOM      5  C11 5SF A 803      84.731   0.762   5.928  1.00  0.00     0.061 A 
ATOM      6  C12 5SF A 803      85.758  -0.169   5.766  1.00  0.00     0.119 A 
ATOM      7  C5  5SF A 803      86.501   1.962  10.157  1.00  0.00     0.037 A 
ATOM      8  N2  5SF A 803      84.648   1.542   6.995  1.00  0.00    -0.352 N 
ATOM      9  H2  5SF A 803      83.897   2.225   7.099  1.00  0.00     0.166 HD
ATOM     10  N3  5SF A 803      86.714  -0.332   6.660  1.00  0.00    -0.362 N 
ATOM     11  H3  5SF A 803      87.471  -1.002   6.518  1.00  0.00     0.165 HD
ATOM     12  C6  5SF A 803      87.492   0.981   9.980  1.00  0.00     0.032 A 
ENDROOT
BRANCH   7  13
ATOM     13  N1  5SF A 803      86.384   2.658  11.387  1.00  0.00    -0.345 N 
BRANCH  13  14
ATOM     14  C17 5SF A 803      85.212   3.415  11.660  1.00  0.00     0.040 A 
ATOM     15  C22 5SF A 803      84.724   4.270  10.673  1.00  0.00     0.066 A 
ATOM     16  C21 5SF A 803      83.644   5.089  10.966  1.00  0.00     0.073 A 
ATOM     17  C20 5SF A 803      83.045   5.060  12.216  1.00  0.00     0.073 A 
ATOM     18  C19 5SF A 803      83.548   4.210  13.189  1.00  0.00     0.073 A 
ATOM     19  C18 5SF A 803      84.610   3.357  12.916  1.00  0.00     0.066 A 
BRANCH  16  20
ATOM     20  O   5SF A 803      83.269   5.892   9.918  1.00  0.00    -0.356 OA
ATOM     21  C23 5SF A 803      82.371   5.376   8.945  1.00  0.00     0.210 C 
ENDBRANCH  16  20
BRANCH  18  22
ATOM     22  O1  5SF A 803      83.046   4.110  14.464  1.00  0.00    -0.356 OA
ATOM     23  C24 5SF A 803      81.741   3.582  14.669  1.00  0.00     0.210 C 
ENDBRANCH  18  22
ENDBRANCH  13  14
BRANCH  13  24
ATOM     24  C4  5SF A 803      87.520   2.900  12.295  1.00  0.00     0.157 C 
BRANCH  24  25
ATOM     25  C3  5SF A 803      87.446   1.858  13.400  1.00  0.00     0.253 C 
BRANCH  25  26
ATOM     26  N   5SF A 803      88.791   1.504  13.884  1.00  0.00    -0.070 N 
ATOM     27  H   5SF A 803      89.472   1.801  13.185  1.00  0.00     0.277 HD
ATOM     28  H   5SF A 803      88.796   0.495  14.032  1.00  0.00     0.277 HD
BRANCH  26  29
ATOM     29  C1  5SF A 803      89.147   2.129  15.174  1.00  0.00     0.178 C 
ATOM     30  C2  5SF A 803      90.428   2.915  15.008  1.00  0.00     0.039 C 
ATOM     31  C   5SF A 803      89.261   1.097  16.264  1.00  0.00     0.039 C 
ENDBRANCH  26  29
ENDBRANCH  25  26
ENDBRANCH  24  25
ENDBRANCH  13  24
ENDBRANCH   7  13
BRANCH   5  32
ATOM     32  C13 5SF A 803      83.682   0.943   4.894  1.00  0.00     0.026 A 
ATOM     33  C14 5SF A 803      83.332   0.072   3.859  1.00  0.00     0.122 A 
ATOM     34  N4  5SF A 803      82.255   0.481   3.206  1.00  0.00    -0.310 N 
ATOM     35  N5  5SF A 803      81.899   1.653   3.827  1.00  0.00    -0.307 N 
ATOM     36  H4  5SF A 803      81.793   0.027   2.418  1.00  0.00     0.186 HD
ATOM     37  C15 5SF A 803      82.741   1.936   4.829  1.00  0.00     0.124 A 
ATOM     38  C16 5SF A 803      80.742   2.426   3.393  1.00  0.00     0.177 C 
ENDBRANCH   5  32
TORSDOF 9
ENDMDL
MODEL 32
REMARK VINA RESULT:    -3.573      1.856      2.882
REMARK INTER + INTRA:          -5.861
REMARK INTER:                  -6.064
REMARK INTRA:                   0.203
REMARK UNBOUND:                -0.408
REMARK  9 active torsions:
REMARK  status: ('A' for Active; 'I' for Inactive)
REMARK    1  A    between atoms: C1_1  and  N_26 
REMARK    2  A    between atoms: C3_3  and  C4_25 
REMARK    3  A    between atoms: C3_3  and  N_26 
REMARK    4  A    between atoms: C11_8  and  C13_10 
REMARK    5  A    between atoms: C19_14  and  O1_19 
REMARK    6  A    between atoms: C21_16  and  O_21 
REMARK    7  A    between atoms: C17_23  and  N1_24 
REMARK    8  A    between atoms: N1_24  and  C5_28 
REMARK    9  A    between atoms: N1_24  and  C4_25 
ROOT
ATOM      1  C7  5SF A 803      87.022   1.579   9.374  1.00  0.00     0.034 A 
ATOM      2  C8  5SF A 803      85.882   2.003   8.661  1.00  0.00     0.059 A 
ATOM      3  C9  5SF A 803      85.026   2.959   9.240  1.00  0.00     0.061 A 
ATOM      4  C10 5SF A 803      85.358   3.524  10.489  1.00  0.00     0.061 A 
ATOM      5  C11 5SF A 803      83.593   2.732   7.460  1.00  0.00     0.061 A 
ATOM      6  C12 5SF A 803      84.452   1.795   6.885  1.00  0.00     0.119 A 
ATOM      7  C5  5SF A 803      86.502   3.095  11.183  1.00  0.00     0.037 A 
ATOM      8  N2  5SF A 803      83.862   3.319   8.616  1.00  0.00    -0.352 N 
ATOM      9  H2  5SF A 803      83.231   4.008   9.024  1.00  0.00     0.166 HD
ATOM     10  N3  5SF A 803      85.587   1.433   7.449  1.00  0.00    -0.362 N 
ATOM     11  H3  5SF A 803      86.216   0.763   7.006  1.00  0.00     0.165 HD
ATOM     12  C6  5SF A 803      87.319   2.113  10.594  1.00  0.00     0.032 A 
ENDROOT
BRANCH   7  13
ATOM     13  N1  5SF A 803      86.774   3.571  12.491  1.00  0.00    -0.345 N 
BRANCH  13  14
ATOM     14  C17 5SF A 803      87.702   2.877  13.315  1.00  0.00     0.040 A 
ATOM     15  C22 5SF A 803      87.998   1.548  13.016  1.00  0.00     0.066 A 
ATOM     16  C21 5SF A 803      88.820   0.833  13.873  1.00  0.00     0.073 A 
ATOM     17  C20 5SF A 803      89.354   1.422  15.008  1.00  0.00     0.073 A 
ATOM     18  C19 5SF A 803      89.043   2.743  15.296  1.00  0.00     0.073 A 
ATOM     19  C18 5SF A 803      88.246   3.493  14.441  1.00  0.00     0.066 A 
BRANCH  16  20
ATOM     20  O   5SF A 803      89.023  -0.466  13.477  1.00  0.00    -0.356 OA
ATOM     21  C23 5SF A 803      88.998  -0.771  12.089  1.00  0.00     0.210 C 
ENDBRANCH  16  20
BRANCH  18  22
ATOM     22  O1  5SF A 803      89.499   3.423  16.398  1.00  0.00    -0.356 OA
ATOM     23  C24 5SF A 803      90.686   2.992  17.052  1.00  0.00     0.210 C 
ENDBRANCH  18  22
ENDBRANCH  13  14
BRANCH  13  24
ATOM     24  C4  5SF A 803      85.941   4.572  13.181  1.00  0.00     0.157 C 
BRANCH  24  25
ATOM     25  C3  5SF A 803      84.859   3.816  13.937  1.00  0.00     0.253 C 
BRANCH  25  26
ATOM     26  N   5SF A 803      83.519   4.305  13.570  1.00  0.00    -0.070 N 
ATOM     27  H   5SF A 803      83.575   4.730  12.645  1.00  0.00     0.277 HD
ATOM     28  H   5SF A 803      83.239   4.969  14.291  1.00  0.00     0.277 HD
BRANCH  26  29
ATOM     29  C1  5SF A 803      82.486   3.250  13.536  1.00  0.00     0.178 C 
ATOM     30  C2  5SF A 803      83.053   1.981  14.132  1.00  0.00     0.039 C 
ATOM     31  C   5SF A 803      81.980   3.031  12.135  1.00  0.00     0.039 C 
ENDBRANCH  26  29
ENDBRANCH  25  26
ENDBRANCH  24  25
ENDBRANCH  13  24
ENDBRANCH   7  13
BRANCH   5  32
ATOM     32  C13 5SF A 803      82.333   3.140   6.790  1.00  0.00     0.026 A 
ATOM     33  C14 5SF A 803      81.135   3.550   7.381  1.00  0.00     0.122 A 
ATOM     34  N4  5SF A 803      80.260   3.980   6.485  1.00  0.00    -0.310 N 
ATOM     35  N5  5SF A 803      80.901   3.838   5.278  1.00  0.00    -0.307 N 
ATOM     36  H4  5SF A 803      79.319   4.336   6.652  1.00  0.00     0.186 HD
ATOM     37  C15 5SF A 803      82.132   3.338   5.450  1.00  0.00     0.124 A 
ATOM     38  C16 5SF A 803      80.258   4.207   4.023  1.00  0.00     0.177 C 
ENDBRANCH   5  32
TORSDOF 9
ENDMDL
MODEL 33
REMARK VINA RESULT:    -3.478      4.025      9.018
REMARK INTER + INTRA:          -5.716
REMARK INTER:                  -5.334
REMARK INTRA:                  -0.382
REMARK UNBOUND:                -0.408
REMARK  9 active torsions:
REMARK  status: ('A' for Active; 'I' for Inactive)
REMARK    1  A    between atoms: C1_1  and  N_26 
REMARK    2  A    between atoms: C3_3  and  C4_25 
REMARK    3  A    between atoms: C3_3  and  N_26 
REMARK    4  A    between atoms: C11_8  and  C13_10 
REMARK    5  A    between atoms: C19_14  and  O1_19 
REMARK    6  A    between atoms: C21_16  and  O_21 
REMARK    7  A    between atoms: C17_23  and  N1_24 
REMARK    8  A    between atoms: N1_24  and  C5_28 
REMARK    9  A    between atoms: N1_24  and  C4_25 
ROOT
ATOM      1  C7  5SF A 803      86.939   2.736  10.497  1.00  0.00     0.034 A 
ATOM      2  C8  5SF A 803      87.503   2.301  11.714  1.00  0.00     0.059 A 
ATOM      3  C9  5SF A 803      86.687   2.223  12.858  1.00  0.00     0.061 A 
ATOM      4  C10 5SF A 803      85.311   2.514  12.753  1.00  0.00     0.061 A 
ATOM      5  C11 5SF A 803      88.527   1.665  14.113  1.00  0.00     0.061 A 
ATOM      6  C12 5SF A 803      89.329   1.731  12.973  1.00  0.00     0.119 A 
ATOM      7  C5  5SF A 803      84.764   2.938  11.530  1.00  0.00     0.037 A 
ATOM      8  N2  5SF A 803      87.225   1.899  14.075  1.00  0.00    -0.352 N 
ATOM      9  H2  5SF A 803      86.648   1.840  14.914  1.00  0.00     0.166 HD
ATOM     10  N3  5SF A 803      88.844   2.027  11.782  1.00  0.00    -0.362 N 
ATOM     11  H3  5SF A 803      89.438   2.051  10.953  1.00  0.00     0.165 HD
ATOM     12  C6  5SF A 803      85.612   3.041  10.413  1.00  0.00     0.032 A 
ENDROOT
BRANCH   7  13
ATOM     13  N1  5SF A 803      83.409   3.347  11.449  1.00  0.00    -0.345 N 
BRANCH  13  14
ATOM     14  C17 5SF A 803      82.838   3.646  10.181  1.00  0.00     0.040 A 
ATOM     15  C22 5SF A 803      82.349   4.931   9.953  1.00  0.00     0.066 A 
ATOM     16  C21 5SF A 803      81.698   5.202   8.760  1.00  0.00     0.073 A 
ATOM     17  C20 5SF A 803      81.538   4.219   7.795  1.00  0.00     0.073 A 
ATOM     18  C19 5SF A 803      82.023   2.943   8.041  1.00  0.00     0.073 A 
ATOM     19  C18 5SF A 803      82.705   2.650   9.214  1.00  0.00     0.066 A 
BRANCH  16  20
ATOM     20  O   5SF A 803      81.252   6.496   8.663  1.00  0.00    -0.356 OA
ATOM     21  C23 5SF A 803      80.325   6.976   9.627  1.00  0.00     0.210 C 
ENDBRANCH  16  20
BRANCH  18  22
ATOM     22  O1  5SF A 803      81.907   1.890   7.167  1.00  0.00    -0.356 OA
ATOM     23  C24 5SF A 803      82.954   1.620   6.243  1.00  0.00     0.210 C 
ENDBRANCH  18  22
ENDBRANCH  13  14
BRANCH  13  24
ATOM     24  C4  5SF A 803      82.617   3.777  12.616  1.00  0.00     0.157 C 
BRANCH  24  25
ATOM     25  C3  5SF A 803      83.065   5.187  12.971  1.00  0.00     0.253 C 
BRANCH  25  26
ATOM     26  N   5SF A 803      84.167   5.161  13.948  1.00  0.00    -0.070 N 
ATOM     27  H   5SF A 803      84.762   4.360  13.739  1.00  0.00     0.277 HD
ATOM     28  H   5SF A 803      83.740   5.102  14.872  1.00  0.00     0.277 HD
BRANCH  26  29
ATOM     29  C1  5SF A 803      85.003   6.378  13.939  1.00  0.00     0.178 C 
ATOM     30  C2  5SF A 803      85.601   6.559  12.561  1.00  0.00     0.039 C 
ATOM     31  C   5SF A 803      86.065   6.316  15.004  1.00  0.00     0.039 C 
ENDBRANCH  26  29
ENDBRANCH  25  26
ENDBRANCH  24  25
ENDBRANCH  13  24
ENDBRANCH   7  13
BRANCH   5  32
ATOM     32  C13 5SF A 803      89.095   1.304  15.436  1.00  0.00     0.026 A 
ATOM     33  C14 5SF A 803      90.166   1.901  16.107  1.00  0.00     0.122 A 
ATOM     34  N4  5SF A 803      90.315   1.421  17.332  1.00  0.00    -0.310 N 
ATOM     35  N5  5SF A 803      89.320   0.483  17.460  1.00  0.00    -0.307 N 
ATOM     36  H4  5SF A 803      91.014   1.688  18.026  1.00  0.00     0.186 HD
ATOM     37  C15 5SF A 803      88.592   0.405  16.339  1.00  0.00     0.124 A 
ATOM     38  C16 5SF A 803      89.147  -0.283  18.688  1.00  0.00     0.177 C 
ENDBRANCH   5  32
TORSDOF 9
ENDMDL
MODEL 34
REMARK VINA RESULT:    -3.471      1.991      3.064
REMARK INTER + INTRA:          -5.705
REMARK INTER:                  -6.717
REMARK INTRA:                   1.012
REMARK UNBOUND:                -0.408
REMARK  9 active torsions:
REMARK  status: ('A' for Active; 'I' for Inactive)
REMARK    1  A    between atoms: C1_1  and  N_26 
REMARK    2  A    between atoms: C3_3  and  C4_25 
REMARK    3  A    between atoms: C3_3  and  N_26 
REMARK    4  A    between atoms: C11_8  and  C13_10 
REMARK    5  A    between atoms: C19_14  and  O1_19 
REMARK    6  A    between atoms: C21_16  and  O_21 
REMARK    7  A    between atoms: C17_23  and  N1_24 
REMARK    8  A    between atoms: N1_24  and  C5_28 
REMARK    9  A    between atoms: N1_24  and  C4_25 
ROOT
ATOM      1  C7  5SF A 803      87.615   1.105  10.258  1.00  0.00     0.034 A 
ATOM      2  C8  5SF A 803      86.893   1.098   9.048  1.00  0.00     0.059 A 
ATOM      3  C9  5SF A 803      85.861   2.036   8.860  1.00  0.00     0.061 A 
ATOM      4  C10 5SF A 803      85.612   3.006   9.853  1.00  0.00     0.061 A 
ATOM      5  C11 5SF A 803      85.342   1.041   6.856  1.00  0.00     0.061 A 
ATOM      6  C12 5SF A 803      86.376   0.122   7.042  1.00  0.00     0.119 A 
ATOM      7  C5  5SF A 803      86.347   3.003  11.050  1.00  0.00     0.037 A 
ATOM      8  N2  5SF A 803      85.078   1.993   7.738  1.00  0.00    -0.352 N 
ATOM      9  H2  5SF A 803      84.324   2.664   7.587  1.00  0.00     0.166 HD
ATOM     10  N3  5SF A 803      87.159   0.141   8.103  1.00  0.00    -0.362 N 
ATOM     11  H3  5SF A 803      87.925  -0.524   8.216  1.00  0.00     0.165 HD
ATOM     12  C6  5SF A 803      87.349   2.032  11.224  1.00  0.00     0.032 A 
ENDROOT
BRANCH   7  13
ATOM     13  N1  5SF A 803      86.020   3.899  12.100  1.00  0.00    -0.345 N 
BRANCH  13  14
ATOM     14  C17 5SF A 803      86.815   3.924  13.278  1.00  0.00     0.040 A 
ATOM     15  C22 5SF A 803      86.721   5.027  14.126  1.00  0.00     0.066 A 
ATOM     16  C21 5SF A 803      87.567   5.107  15.221  1.00  0.00     0.073 A 
ATOM     17  C20 5SF A 803      88.491   4.108  15.486  1.00  0.00     0.073 A 
ATOM     18  C19 5SF A 803      88.577   3.021  14.628  1.00  0.00     0.073 A 
ATOM     19  C18 5SF A 803      87.723   2.899  13.540  1.00  0.00     0.066 A 
BRANCH  16  20
ATOM     20  O   5SF A 803      87.387   6.246  15.967  1.00  0.00    -0.356 OA
ATOM     21  C23 5SF A 803      86.174   6.973  15.825  1.00  0.00     0.210 C 
ENDBRANCH  16  20
BRANCH  18  22
ATOM     22  O1  5SF A 803      89.463   1.983  14.781  1.00  0.00    -0.356 OA
ATOM     23  C24 5SF A 803      90.040   1.730  16.056  1.00  0.00     0.210 C 
ENDBRANCH  18  22
ENDBRANCH  13  14
BRANCH  13  24
ATOM     24  C4  5SF A 803      84.731   4.609  12.192  1.00  0.00     0.157 C 
BRANCH  24  25
ATOM     25  C3  5SF A 803      83.897   3.896  13.246  1.00  0.00     0.253 C 
BRANCH  25  26
ATOM     26  N   5SF A 803      82.652   4.633  13.521  1.00  0.00    -0.070 N 
ATOM     27  H   5SF A 803      82.503   5.304  12.767  1.00  0.00     0.277 HD
ATOM     28  H   5SF A 803      82.770   5.083  14.429  1.00  0.00     0.277 HD
BRANCH  26  29
ATOM     29  C1  5SF A 803      81.457   3.772  13.621  1.00  0.00     0.178 C 
ATOM     30  C2  5SF A 803      81.218   3.098  12.288  1.00  0.00     0.039 C 
ATOM     31  C   5SF A 803      80.256   4.560  14.071  1.00  0.00     0.039 C 
ENDBRANCH  26  29
ENDBRANCH  25  26
ENDBRANCH  24  25
ENDBRANCH  13  24
ENDBRANCH   7  13
BRANCH   5  32
ATOM     32  C13 5SF A 803      84.493   1.013   5.639  1.00  0.00     0.026 A 
ATOM     33  C14 5SF A 803      84.715   0.315   4.449  1.00  0.00     0.122 A 
ATOM     34  N4  5SF A 803      83.683   0.399   3.623  1.00  0.00    -0.310 N 
ATOM     35  N5  5SF A 803      82.769   1.178   4.289  1.00  0.00    -0.307 N 
ATOM     36  H4  5SF A 803      83.589  -0.020   2.697  1.00  0.00     0.186 HD
ATOM     37  C15 5SF A 803      83.242   1.548   5.486  1.00  0.00     0.124 A 
ATOM     38  C16 5SF A 803      81.477   1.510   3.702  1.00  0.00     0.177 C 
ENDBRANCH   5  32
TORSDOF 9
ENDMDL
MODEL 35
REMARK VINA RESULT:    -3.470      2.710      5.215
REMARK INTER + INTRA:          -5.704
REMARK INTER:                  -5.510
REMARK INTRA:                  -0.194
REMARK UNBOUND:                -0.408
REMARK  9 active torsions:
REMARK  status: ('A' for Active; 'I' for Inactive)
REMARK    1  A    between atoms: C1_1  and  N_26 
REMARK    2  A    between atoms: C3_3  and  C4_25 
REMARK    3  A    between atoms: C3_3  and  N_26 
REMARK    4  A    between atoms: C11_8  and  C13_10 
REMARK    5  A    between atoms: C19_14  and  O1_19 
REMARK    6  A    between atoms: C21_16  and  O_21 
REMARK    7  A    between atoms: C17_23  and  N1_24 
REMARK    8  A    between atoms: N1_24  and  C5_28 
REMARK    9  A    between atoms: N1_24  and  C4_25 
ROOT
ATOM      1  C7  5SF A 803      82.372   6.578  10.182  1.00  0.00     0.034 A 
ATOM      2  C8  5SF A 803      82.263   5.602   9.170  1.00  0.00     0.059 A 
ATOM      3  C9  5SF A 803      83.073   4.454   9.234  1.00  0.00     0.061 A 
ATOM      4  C10 5SF A 803      83.929   4.266  10.339  1.00  0.00     0.061 A 
ATOM      5  C11 5SF A 803      82.257   3.783   7.195  1.00  0.00     0.061 A 
ATOM      6  C12 5SF A 803      81.446   4.917   7.144  1.00  0.00     0.119 A 
ATOM      7  C5  5SF A 803      84.020   5.245  11.343  1.00  0.00     0.037 A 
ATOM      8  N2  5SF A 803      83.061   3.536   8.218  1.00  0.00    -0.352 N 
ATOM      9  H2  5SF A 803      83.644   2.700   8.248  1.00  0.00     0.166 HD
ATOM     10  N3  5SF A 803      81.421   5.815   8.109  1.00  0.00    -0.362 N 
ATOM     11  H3  5SF A 803      80.807   6.629   8.068  1.00  0.00     0.165 HD
ATOM     12  C6  5SF A 803      83.224   6.399  11.234  1.00  0.00     0.032 A 
ENDROOT
BRANCH   7  13
ATOM     13  N1  5SF A 803      84.967   5.118  12.392  1.00  0.00    -0.345 N 
BRANCH  13  14
ATOM     14  C17 5SF A 803      85.960   4.103  12.324  1.00  0.00     0.040 A 
ATOM     15  C22 5SF A 803      86.372   3.652  11.071  1.00  0.00     0.066 A 
ATOM     16  C21 5SF A 803      87.262   2.592  10.997  1.00  0.00     0.073 A 
ATOM     17  C20 5SF A 803      87.751   1.987  12.145  1.00  0.00     0.073 A 
ATOM     18  C19 5SF A 803      87.325   2.443  13.384  1.00  0.00     0.073 A 
ATOM     19  C18 5SF A 803      86.456   3.521  13.491  1.00  0.00     0.066 A 
BRANCH  16  20
ATOM     20  O   5SF A 803      87.578   2.234   9.710  1.00  0.00    -0.356 OA
ATOM     21  C23 5SF A 803      87.054   1.020   9.188  1.00  0.00     0.210 C 
ENDBRANCH  16  20
BRANCH  18  22
ATOM     22  O1  5SF A 803      87.728   1.911  14.585  1.00  0.00    -0.356 OA
ATOM     23  C24 5SF A 803      89.111   1.686  14.828  1.00  0.00     0.210 C 
ENDBRANCH  18  22
ENDBRANCH  13  14
BRANCH  13  24
ATOM     24  C4  5SF A 803      84.820   5.773  13.704  1.00  0.00     0.157 C 
BRANCH  24  25
ATOM     25  C3  5SF A 803      83.421   5.457  14.212  1.00  0.00     0.253 C 
BRANCH  25  26
ATOM     26  N   5SF A 803      83.396   4.170  14.927  1.00  0.00    -0.070 N 
ATOM     27  H   5SF A 803      83.267   4.357  15.921  1.00  0.00     0.277 HD
ATOM     28  H   5SF A 803      84.282   3.704  14.728  1.00  0.00     0.277 HD
BRANCH  26  29
ATOM     29  C1  5SF A 803      82.323   3.259  14.482  1.00  0.00     0.178 C 
ATOM     30  C2  5SF A 803      82.935   2.112  13.707  1.00  0.00     0.039 C 
ATOM     31  C   5SF A 803      81.289   3.992  13.670  1.00  0.00     0.039 C 
ENDBRANCH  26  29
ENDBRANCH  25  26
ENDBRANCH  24  25
ENDBRANCH  13  24
ENDBRANCH   7  13
BRANCH   5  32
ATOM     32  C13 5SF A 803      82.245   2.774   6.106  1.00  0.00     0.026 A 
ATOM     33  C14 5SF A 803      81.378   2.697   5.013  1.00  0.00     0.122 A 
ATOM     34  N4  5SF A 803      81.741   1.753   4.157  1.00  0.00    -0.310 N 
ATOM     35  N5  5SF A 803      82.868   1.198   4.711  1.00  0.00    -0.307 N 
ATOM     36  H4  5SF A 803      81.284   1.496   3.281  1.00  0.00     0.186 HD
ATOM     37  C15 5SF A 803      83.174   1.796   5.869  1.00  0.00     0.124 A 
ATOM     38  C16 5SF A 803      83.580   0.105   4.059  1.00  0.00     0.177 C 
ENDBRANCH   5  32
TORSDOF 9
ENDMDL
MODEL 36
REMARK VINA RESULT:    -3.330      2.293      3.454
REMARK INTER + INTRA:          -5.490
REMARK INTER:                  -5.739
REMARK INTRA:                   0.250
REMARK UNBOUND:                -0.408
REMARK  9 active torsions:
REMARK  status: ('A' for Active; 'I' for Inactive)
REMARK    1  A    between atoms: C1_1  and  N_26 
REMARK    2  A    between atoms: C3_3  and  C4_25 
REMARK    3  A    between atoms: C3_3  and  N_26 
REMARK    4  A    between atoms: C11_8  and  C13_10 
REMARK    5  A    between atoms: C19_14  and  O1_19 
REMARK    6  A    between atoms: C21_16  and  O_21 
REMARK    7  A    between atoms: C17_23  and  N1_24 
REMARK    8  A    between atoms: N1_24  and  C5_28 
REMARK    9  A    between atoms: N1_24  and  C4_25 
ROOT
ATOM      1  C7  5SF A 803      87.231   1.218  10.077  1.00  0.00     0.034 A 
ATOM      2  C8  5SF A 803      86.587   1.118   8.827  1.00  0.00     0.059 A 
ATOM      3  C9  5SF A 803      85.499   1.965   8.547  1.00  0.00     0.061 A 
ATOM      4  C10 5SF A 803      85.115   2.941   9.490  1.00  0.00     0.061 A 
ATOM      5  C11 5SF A 803      85.184   0.874   6.551  1.00  0.00     0.061 A 
ATOM      6  C12 5SF A 803      86.272   0.046   6.828  1.00  0.00     0.119 A 
ATOM      7  C5  5SF A 803      85.773   3.031  10.728  1.00  0.00     0.037 A 
ATOM      8  N2  5SF A 803      84.792   1.827   7.382  1.00  0.00    -0.352 N 
ATOM      9  H2  5SF A 803      84.000   2.431   7.165  1.00  0.00     0.166 HD
ATOM     10  N3  5SF A 803      86.985   0.158   7.933  1.00  0.00    -0.362 N 
ATOM     11  H3  5SF A 803      87.791  -0.441   8.113  1.00  0.00     0.165 HD
ATOM     12  C6  5SF A 803      86.834   2.148  10.994  1.00  0.00     0.032 A 
ENDROOT
BRANCH   7  13
ATOM     13  N1  5SF A 803      85.313   3.929  11.726  1.00  0.00    -0.345 N 
BRANCH  13  14
ATOM     14  C17 5SF A 803      86.147   4.235  12.836  1.00  0.00     0.040 A 
ATOM     15  C22 5SF A 803      87.058   3.275  13.273  1.00  0.00     0.066 A 
ATOM     16  C21 5SF A 803      87.801   3.524  14.417  1.00  0.00     0.073 A 
ATOM     17  C20 5SF A 803      87.656   4.711  15.118  1.00  0.00     0.073 A 
ATOM     18  C19 5SF A 803      86.739   5.653  14.674  1.00  0.00     0.073 A 
ATOM     19  C18 5SF A 803      86.002   5.443  13.516  1.00  0.00     0.066 A 
BRANCH  16  20
ATOM     20  O   5SF A 803      88.649   2.498  14.751  1.00  0.00    -0.356 OA
ATOM     21  C23 5SF A 803      88.266   1.164  14.444  1.00  0.00     0.210 C 
ENDBRANCH  16  20
BRANCH  18  22
ATOM     22  O1  5SF A 803      86.500   6.854  15.297  1.00  0.00    -0.356 OA
ATOM     23  C24 5SF A 803      85.435   6.963  16.232  1.00  0.00     0.210 C 
ENDBRANCH  18  22
ENDBRANCH  13  14
BRANCH  13  24
ATOM     24  C4  5SF A 803      83.906   4.347  11.857  1.00  0.00     0.157 C 
BRANCH  24  25
ATOM     25  C3  5SF A 803      83.165   3.224  12.567  1.00  0.00     0.253 C 
BRANCH  25  26
ATOM     26  N   5SF A 803      81.786   3.623  12.892  1.00  0.00    -0.070 N 
ATOM     27  H   5SF A 803      81.312   2.824  13.314  1.00  0.00     0.277 HD
ATOM     28  H   5SF A 803      81.351   3.919  12.018  1.00  0.00     0.277 HD
BRANCH  26  29
ATOM     29  C1  5SF A 803      81.696   4.764  13.824  1.00  0.00     0.178 C 
ATOM     30  C2  5SF A 803      82.500   4.454  15.067  1.00  0.00     0.039 C 
ATOM     31  C   5SF A 803      80.263   5.087  14.152  1.00  0.00     0.039 C 
ENDBRANCH  26  29
ENDBRANCH  25  26
ENDBRANCH  24  25
ENDBRANCH  13  24
ENDBRANCH   7  13
BRANCH   5  32
ATOM     32  C13 5SF A 803      84.416   0.742   5.287  1.00  0.00     0.026 A 
ATOM     33  C14 5SF A 803      84.829   0.167   4.083  1.00  0.00     0.122 A 
ATOM     34  N4  5SF A 803      83.841   0.089   3.204  1.00  0.00    -0.310 N 
ATOM     35  N5  5SF A 803      82.759   0.635   3.850  1.00  0.00    -0.307 N 
ATOM     36  H4  5SF A 803      83.876  -0.292   2.258  1.00  0.00     0.186 HD
ATOM     37  C15 5SF A 803      83.091   1.027   5.087  1.00  0.00     0.124 A 
ATOM     38  C16 5SF A 803      81.456   0.735   3.205  1.00  0.00     0.177 C 
ENDBRANCH   5  32
TORSDOF 9
ENDMDL
MODEL 37
REMARK VINA RESULT:    -3.310      2.552      4.969
REMARK INTER + INTRA:          -5.459
REMARK INTER:                  -5.863
REMARK INTRA:                   0.404
REMARK UNBOUND:                -0.408
REMARK  9 active torsions:
REMARK  status: ('A' for Active; 'I' for Inactive)
REMARK    1  A    between atoms: C1_1  and  N_26 
REMARK    2  A    between atoms: C3_3  and  C4_25 
REMARK    3  A    between atoms: C3_3  and  N_26 
REMARK    4  A    between atoms: C11_8  and  C13_10 
REMARK    5  A    between atoms: C19_14  and  O1_19 
REMARK    6  A    between atoms: C21_16  and  O_21 
REMARK    7  A    between atoms: C17_23  and  N1_24 
REMARK    8  A    between atoms: N1_24  and  C5_28 
REMARK    9  A    between atoms: N1_24  and  C4_25 
ROOT
ATOM      1  C7  5SF A 803      82.043   5.354   9.670  1.00  0.00     0.034 A 
ATOM      2  C8  5SF A 803      82.095   4.378   8.653  1.00  0.00     0.059 A 
ATOM      3  C9  5SF A 803      83.164   3.464   8.634  1.00  0.00     0.061 A 
ATOM      4  C10 5SF A 803      84.126   3.495   9.666  1.00  0.00     0.061 A 
ATOM      5  C11 5SF A 803      82.378   2.608   6.654  1.00  0.00     0.061 A 
ATOM      6  C12 5SF A 803      81.312   3.508   6.685  1.00  0.00     0.119 A 
ATOM      7  C5  5SF A 803      84.054   4.469  10.676  1.00  0.00     0.037 A 
ATOM      8  N2  5SF A 803      83.296   2.568   7.607  1.00  0.00    -0.352 N 
ATOM      9  H2  5SF A 803      84.066   1.900   7.578  1.00  0.00     0.166 HD
ATOM     10  N3  5SF A 803      81.145   4.376   7.664  1.00  0.00    -0.362 N 
ATOM     11  H3  5SF A 803      80.349   5.014   7.685  1.00  0.00     0.165 HD
ATOM     12  C6  5SF A 803      82.993   5.392  10.649  1.00  0.00     0.032 A 
ENDROOT
BRANCH   7  13
ATOM     13  N1  5SF A 803      85.083   4.580  11.646  1.00  0.00    -0.345 N 
BRANCH  13  14
ATOM     14  C17 5SF A 803      86.016   3.520  11.807  1.00  0.00     0.040 A 
ATOM     15  C22 5SF A 803      86.414   3.169  13.096  1.00  0.00     0.066 A 
ATOM     16  C21 5SF A 803      87.400   2.208  13.257  1.00  0.00     0.073 A 
ATOM     17  C20 5SF A 803      87.983   1.591  12.161  1.00  0.00     0.073 A 
ATOM     18  C19 5SF A 803      87.582   1.958  10.885  1.00  0.00     0.073 A 
ATOM     19  C18 5SF A 803      86.576   2.896  10.693  1.00  0.00     0.066 A 
BRANCH  16  20
ATOM     20  O   5SF A 803      87.712   1.962  14.571  1.00  0.00    -0.356 OA
ATOM     21  C23 5SF A 803      88.836   1.144  14.868  1.00  0.00     0.210 C 
ENDBRANCH  16  20
BRANCH  18  22
ATOM     22  O1  5SF A 803      88.100   1.428   9.728  1.00  0.00    -0.356 OA
ATOM     23  C24 5SF A 803      87.829   0.073   9.390  1.00  0.00     0.210 C 
ENDBRANCH  18  22
ENDBRANCH  13  14
BRANCH  13  24
ATOM     24  C4  5SF A 803      85.086   5.594  12.716  1.00  0.00     0.157 C 
BRANCH  24  25
ATOM     25  C3  5SF A 803      83.776   5.452  13.476  1.00  0.00     0.253 C 
BRANCH  25  26
ATOM     26  N   5SF A 803      83.858   4.374  14.475  1.00  0.00    -0.070 N 
ATOM     27  H   5SF A 803      84.057   4.793  15.384  1.00  0.00     0.277 HD
ATOM     28  H   5SF A 803      84.596   3.740  14.166  1.00  0.00     0.277 HD
BRANCH  26  29
ATOM     29  C1  5SF A 803      82.625   3.571  14.593  1.00  0.00     0.178 C 
ATOM     30  C2  5SF A 803      82.771   2.313  13.767  1.00  0.00     0.039 C 
ATOM     31  C   5SF A 803      81.416   4.370  14.185  1.00  0.00     0.039 C 
ENDBRANCH  26  29
ENDBRANCH  25  26
ENDBRANCH  24  25
ENDBRANCH  13  24
ENDBRANCH   7  13
BRANCH   5  32
ATOM     32  C13 5SF A 803      82.526   1.624   5.552  1.00  0.00     0.026 A 
ATOM     33  C14 5SF A 803      83.705   1.092   5.024  1.00  0.00     0.122 A 
ATOM     34  N4  5SF A 803      83.466   0.131   4.145  1.00  0.00    -0.310 N 
ATOM     35  N5  5SF A 803      82.097   0.040   4.093  1.00  0.00    -0.307 N 
ATOM     36  H4  5SF A 803      84.148  -0.420   3.622  1.00  0.00     0.186 HD
ATOM     37  C15 5SF A 803      81.530   0.924   4.924  1.00  0.00     0.124 A 
ATOM     38  C16 5SF A 803      81.427  -0.920   3.224  1.00  0.00     0.177 C 
ENDBRANCH   5  32
TORSDOF 9
ENDMDL
MODEL 38
REMARK VINA RESULT:    -3.274      4.310      9.464
REMARK INTER + INTRA:          -5.404
REMARK INTER:                  -5.265
REMARK INTRA:                  -0.139
REMARK UNBOUND:                -0.408
REMARK  9 active torsions:
REMARK  status: ('A' for Active; 'I' for Inactive)
REMARK    1  A    between atoms: C1_1  and  N_26 
REMARK    2  A    between atoms: C3_3  and  C4_25 
REMARK    3  A    between atoms: C3_3  and  N_26 
REMARK    4  A    between atoms: C11_8  and  C13_10 
REMARK    5  A    between atoms: C19_14  and  O1_19 
REMARK    6  A    between atoms: C21_16  and  O_21 
REMARK    7  A    between atoms: C17_23  and  N1_24 
REMARK    8  A    between atoms: N1_24  and  C5_28 
REMARK    9  A    between atoms: N1_24  and  C4_25 
ROOT
ATOM      1  C7  5SF A 803      86.294   0.961   7.818  1.00  0.00     0.034 A 
ATOM      2  C8  5SF A 803      86.694   1.283   9.131  1.00  0.00     0.059 A 
ATOM      3  C9  5SF A 803      85.938   2.211   9.870  1.00  0.00     0.061 A 
ATOM      4  C10 5SF A 803      84.759   2.750   9.313  1.00  0.00     0.061 A 
ATOM      5  C11 5SF A 803      87.482   2.097  11.565  1.00  0.00     0.061 A 
ATOM      6  C12 5SF A 803      88.221   1.167  10.833  1.00  0.00     0.119 A 
ATOM      7  C5  5SF A 803      84.371   2.412   8.005  1.00  0.00     0.037 A 
ATOM      8  N2  5SF A 803      86.353   2.617  11.109  1.00  0.00    -0.352 N 
ATOM      9  H2  5SF A 803      85.818   3.291  11.657  1.00  0.00     0.166 HD
ATOM     10  N3  5SF A 803      87.845   0.742   9.642  1.00  0.00    -0.362 N 
ATOM     11  H3  5SF A 803      88.384   0.045   9.127  1.00  0.00     0.165 HD
ATOM     12  C6  5SF A 803      85.166   1.509   7.278  1.00  0.00     0.032 A 
ENDROOT
BRANCH   7  13
ATOM     13  N1  5SF A 803      83.255   3.043   7.398  1.00  0.00    -0.345 N 
BRANCH  13  14
ATOM     14  C17 5SF A 803      83.135   3.049   5.981  1.00  0.00     0.040 A 
ATOM     15  C22 5SF A 803      83.429   1.881   5.280  1.00  0.00     0.066 A 
ATOM     16  C21 5SF A 803      83.414   1.906   3.894  1.00  0.00     0.073 A 
ATOM     17  C20 5SF A 803      83.104   3.068   3.204  1.00  0.00     0.073 A 
ATOM     18  C19 5SF A 803      82.821   4.224   3.917  1.00  0.00     0.073 A 
ATOM     19  C18 5SF A 803      82.799   4.222   5.306  1.00  0.00     0.066 A 
BRANCH  16  20
ATOM     20  O   5SF A 803      83.735   0.700   3.323  1.00  0.00    -0.356 OA
ATOM     21  C23 5SF A 803      84.756  -0.090   3.917  1.00  0.00     0.210 C 
ENDBRANCH  16  20
BRANCH  18  22
ATOM     22  O1  5SF A 803      82.517   5.434   3.341  1.00  0.00    -0.356 OA
ATOM     23  C24 5SF A 803      82.309   6.574   4.164  1.00  0.00     0.210 C 
ENDBRANCH  18  22
ENDBRANCH  13  14
BRANCH  13  24
ATOM     24  C4  5SF A 803      82.351   3.961   8.114  1.00  0.00     0.157 C 
BRANCH  24  25
ATOM     25  C3  5SF A 803      81.133   3.155   8.539  1.00  0.00     0.253 C 
BRANCH  25  26
ATOM     26  N   5SF A 803      80.474   3.769   9.704  1.00  0.00    -0.070 N 
ATOM     27  H   5SF A 803      79.733   3.143  10.020  1.00  0.00     0.277 HD
ATOM     28  H   5SF A 803      80.119   4.675   9.399  1.00  0.00     0.277 HD
BRANCH  26  29
ATOM     29  C1  5SF A 803      81.382   4.025  10.840  1.00  0.00     0.178 C 
ATOM     30  C2  5SF A 803      81.644   2.726  11.569  1.00  0.00     0.039 C 
ATOM     31  C   5SF A 803      80.821   5.077  11.758  1.00  0.00     0.039 C 
ENDBRANCH  26  29
ENDBRANCH  25  26
ENDBRANCH  24  25
ENDBRANCH  13  24
ENDBRANCH   7  13
BRANCH   5  32
ATOM     32  C13 5SF A 803      87.916   2.538  12.915  1.00  0.00     0.026 A 
ATOM     33  C14 5SF A 803      87.234   3.363  13.813  1.00  0.00     0.122 A 
ATOM     34  N4  5SF A 803      87.846   3.435  14.985  1.00  0.00    -0.310 N 
ATOM     35  N5  5SF A 803      88.959   2.642  14.844  1.00  0.00    -0.307 N 
ATOM     36  H4  5SF A 803      87.556   3.962  15.809  1.00  0.00     0.186 HD
ATOM     37  C15 5SF A 803      89.009   2.107  13.618  1.00  0.00     0.124 A 
ATOM     38  C16 5SF A 803      89.909   2.459  15.935  1.00  0.00     0.177 C 
ENDBRANCH   5  32
TORSDOF 9
ENDMDL
MODEL 39
REMARK VINA RESULT:    -3.261      2.722      5.250
REMARK INTER + INTRA:          -5.384
REMARK INTER:                  -5.445
REMARK INTRA:                   0.060
REMARK UNBOUND:                -0.408
REMARK  9 active torsions:
REMARK  status: ('A' for Active; 'I' for Inactive)
REMARK    1  A    between atoms: C1_1  and  N_26 
REMARK    2  A    between atoms: C3_3  and  C4_25 
REMARK    3  A    between atoms: C3_3  and  N_26 
REMARK    4  A    between atoms: C11_8  and  C13_10 
REMARK    5  A    between atoms: C19_14  and  O1_19 
REMARK    6  A    between atoms: C21_16  and  O_21 
REMARK    7  A    between atoms: C17_23  and  N1_24 
REMARK    8  A    between atoms: N1_24  and  C5_28 
REMARK    9  A    between atoms: N1_24  and  C4_25 
ROOT
ATOM      1  C7  5SF A 803      83.359   2.233  14.067  1.00  0.00     0.034 A 
ATOM      2  C8  5SF A 803      82.756   2.928  12.998  1.00  0.00     0.059 A 
ATOM      3  C9  5SF A 803      83.550   3.341  11.913  1.00  0.00     0.061 A 
ATOM      4  C10 5SF A 803      84.917   2.994  11.879  1.00  0.00     0.061 A 
ATOM      5  C11 5SF A 803      81.733   4.417  11.011  1.00  0.00     0.061 A 
ATOM      6  C12 5SF A 803      80.947   3.994  12.084  1.00  0.00     0.119 A 
ATOM      7  C5  5SF A 803      85.501   2.294  12.948  1.00  0.00     0.037 A 
ATOM      8  N2  5SF A 803      83.014   4.101  10.908  1.00  0.00    -0.352 N 
ATOM      9  H2  5SF A 803      83.577   4.409  10.115  1.00  0.00     0.166 HD
ATOM     10  N3  5SF A 803      81.424   3.250  13.063  1.00  0.00    -0.362 N 
ATOM     11  H3  5SF A 803      80.833   2.930  13.830  1.00  0.00     0.165 HD
ATOM     12  C6  5SF A 803      84.689   1.927  14.036  1.00  0.00     0.032 A 
ENDROOT
BRANCH   7  13
ATOM     13  N1  5SF A 803      86.897   2.050  12.975  1.00  0.00    -0.345 N 
BRANCH  13  14
ATOM     14  C17 5SF A 803      87.709   2.707  13.939  1.00  0.00     0.040 A 
ATOM     15  C22 5SF A 803      88.749   1.995  14.535  1.00  0.00     0.066 A 
ATOM     16  C21 5SF A 803      89.479   2.594  15.550  1.00  0.00     0.073 A 
ATOM     17  C20 5SF A 803      89.195   3.884  15.969  1.00  0.00     0.073 A 
ATOM     18  C19 5SF A 803      88.152   4.576  15.372  1.00  0.00     0.073 A 
ATOM     19  C18 5SF A 803      87.422   4.014  14.333  1.00  0.00     0.066 A 
BRANCH  16  20
ATOM     20  O   5SF A 803      90.463   1.786  16.064  1.00  0.00    -0.356 OA
ATOM     21  C23 5SF A 803      90.429   1.458  17.446  1.00  0.00     0.210 C 
ENDBRANCH  16  20
BRANCH  18  22
ATOM     22  O1  5SF A 803      87.770   5.850  15.716  1.00  0.00    -0.356 OA
ATOM     23  C24 5SF A 803      86.617   6.427  15.117  1.00  0.00     0.210 C 
ENDBRANCH  18  22
ENDBRANCH  13  14
BRANCH  13  24
ATOM     24  C4  5SF A 803      87.628   1.387  11.879  1.00  0.00     0.157 C 
BRANCH  24  25
ATOM     25  C3  5SF A 803      87.060   1.918  10.572  1.00  0.00     0.253 C 
BRANCH  25  26
ATOM     26  N   5SF A 803      87.103   0.888   9.520  1.00  0.00    -0.070 N 
ATOM     27  H   5SF A 803      86.655   0.044   9.879  1.00  0.00     0.277 HD
ATOM     28  H   5SF A 803      88.086   0.742   9.289  1.00  0.00     0.277 HD
BRANCH  26  29
ATOM     29  C1  5SF A 803      86.422   1.280   8.270  1.00  0.00     0.178 C 
ATOM     30  C2  5SF A 803      84.990   1.656   8.582  1.00  0.00     0.039 C 
ATOM     31  C   5SF A 803      86.500   0.183   7.242  1.00  0.00     0.039 C 
ENDBRANCH  26  29
ENDBRANCH  25  26
ENDBRANCH  24  25
ENDBRANCH  13  24
ENDBRANCH   7  13
BRANCH   5  32
ATOM     32  C13 5SF A 803      81.162   5.232   9.910  1.00  0.00     0.026 A 
ATOM     33  C14 5SF A 803      80.511   6.465   9.997  1.00  0.00     0.122 A 
ATOM     34  N4  5SF A 803      80.257   6.979   8.804  1.00  0.00    -0.310 N 
ATOM     35  N5  5SF A 803      80.748   6.053   7.916  1.00  0.00    -0.307 N 
ATOM     36  H4  5SF A 803      79.798   7.866   8.591  1.00  0.00     0.186 HD
ATOM     37  C15 5SF A 803      81.285   5.012   8.564  1.00  0.00     0.124 A 
ATOM     38  C16 5SF A 803      80.658   6.255   6.475  1.00  0.00     0.177 C 
ENDBRANCH   5  32
TORSDOF 9
ENDMDL
MODEL 40
REMARK VINA RESULT:    -3.246      2.996      5.661
REMARK INTER + INTRA:          -5.362
REMARK INTER:                  -4.919
REMARK INTRA:                  -0.443
REMARK UNBOUND:                -0.408
REMARK  9 active torsions:
REMARK  status: ('A' for Active; 'I' for Inactive)
REMARK    1  A    between atoms: C1_1  and  N_26 
REMARK    2  A    between atoms: C3_3  and  C4_25 
REMARK    3  A    between atoms: C3_3  and  N_26 
REMARK    4  A    between atoms: C11_8  and  C13_10 
REMARK    5  A    between atoms: C19_14  and  O1_19 
REMARK    6  A    between atoms: C21_16  and  O_21 
REMARK    7  A    between atoms: C17_23  and  N1_24 
REMARK    8  A    between atoms: N1_24  and  C5_28 
REMARK    9  A    between atoms: N1_24  and  C4_25 
ROOT
ATOM      1  C7  5SF A 803      82.087   3.175  12.418  1.00  0.00     0.034 A 
ATOM      2  C8  5SF A 803      81.770   3.612  11.115  1.00  0.00     0.059 A 
ATOM      3  C9  5SF A 803      82.808   3.802  10.184  1.00  0.00     0.061 A 
ATOM      4  C10 5SF A 803      84.135   3.489  10.546  1.00  0.00     0.061 A 
ATOM      5  C11 5SF A 803      81.283   4.618   8.673  1.00  0.00     0.061 A 
ATOM      6  C12 5SF A 803      80.256   4.415   9.596  1.00  0.00     0.119 A 
ATOM      7  C5  5SF A 803      84.431   3.047  11.847  1.00  0.00     0.037 A 
ATOM      8  N2  5SF A 803      82.544   4.318   8.943  1.00  0.00    -0.352 N 
ATOM      9  H2  5SF A 803      83.285   4.463   8.258  1.00  0.00     0.166 HD
ATOM     10  N3  5SF A 803      80.470   3.909  10.795  1.00  0.00    -0.362 N 
ATOM     11  H3  5SF A 803      79.707   3.746  11.452  1.00  0.00     0.165 HD
ATOM     12  C6  5SF A 803      83.377   2.901  12.766  1.00  0.00     0.032 A 
ENDROOT
BRANCH   7  13
ATOM     13  N1  5SF A 803      85.776   2.847  12.252  1.00  0.00    -0.345 N 
BRANCH  13  14
ATOM     14  C17 5SF A 803      86.363   3.725  13.203  1.00  0.00     0.040 A 
ATOM     15  C22 5SF A 803      87.459   3.278  13.940  1.00  0.00     0.066 A 
ATOM     16  C21 5SF A 803      87.972   4.088  14.942  1.00  0.00     0.073 A 
ATOM     17  C20 5SF A 803      87.418   5.330  15.209  1.00  0.00     0.073 A 
ATOM     18  C19 5SF A 803      86.324   5.757  14.472  1.00  0.00     0.073 A 
ATOM     19  C18 5SF A 803      85.806   4.981  13.443  1.00  0.00     0.066 A 
BRANCH  16  20
ATOM     20  O   5SF A 803      89.037   3.529  15.602  1.00  0.00    -0.356 OA
ATOM     21  C23 5SF A 803      89.574   2.302  15.125  1.00  0.00     0.210 C 
ENDBRANCH  16  20
BRANCH  18  22
ATOM     22  O1  5SF A 803      85.685   6.959  14.660  1.00  0.00    -0.356 OA
ATOM     23  C24 5SF A 803      84.299   6.979  14.977  1.00  0.00     0.210 C 
ENDBRANCH  18  22
ENDBRANCH  13  14
BRANCH  13  24
ATOM     24  C4  5SF A 803      86.719   1.968  11.536  1.00  0.00     0.157 C 
BRANCH  24  25
ATOM     25  C3  5SF A 803      87.272   2.760  10.362  1.00  0.00     0.253 C 
BRANCH  25  26
ATOM     26  N   5SF A 803      87.172   1.990   9.110  1.00  0.00    -0.070 N 
ATOM     27  H   5SF A 803      88.080   2.012   8.647  1.00  0.00     0.277 HD
ATOM     28  H   5SF A 803      86.437   2.426   8.554  1.00  0.00     0.277 HD
BRANCH  26  29
ATOM     29  C1  5SF A 803      86.783   0.579   9.306  1.00  0.00     0.178 C 
ATOM     30  C2  5SF A 803      87.983  -0.306   9.049  1.00  0.00     0.039 C 
ATOM     31  C   5SF A 803      85.618   0.210   8.426  1.00  0.00     0.039 C 
ENDBRANCH  26  29
ENDBRANCH  25  26
ENDBRANCH  24  25
ENDBRANCH  13  24
ENDBRANCH   7  13
BRANCH   5  32
ATOM     32  C13 5SF A 803      81.009   5.166   7.321  1.00  0.00     0.026 A 
ATOM     33  C14 5SF A 803      80.530   6.435   6.986  1.00  0.00     0.122 A 
ATOM     34  N4  5SF A 803      80.538   6.640   5.677  1.00  0.00    -0.310 N 
ATOM     35  N5  5SF A 803      81.028   5.471   5.147  1.00  0.00    -0.307 N 
ATOM     36  H4  5SF A 803      80.246   7.479   5.175  1.00  0.00     0.186 HD
ATOM     37  C15 5SF A 803      81.308   4.590   6.115  1.00  0.00     0.124 A 
ATOM     38  C16 5SF A 803      81.191   5.295   3.709  1.00  0.00     0.177 C 
ENDBRANCH   5  32
TORSDOF 9
ENDMDL
MODEL 41
REMARK VINA RESULT:    -3.144      3.168      6.108
REMARK INTER + INTRA:          -5.206
REMARK INTER:                  -5.678
REMARK INTRA:                   0.473
REMARK UNBOUND:                -0.408
REMARK  9 active torsions:
REMARK  status: ('A' for Active; 'I' for Inactive)
REMARK    1  A    between atoms: C1_1  and  N_26 
REMARK    2  A    between atoms: C3_3  and  C4_25 
REMARK    3  A    between atoms: C3_3  and  N_26 
REMARK    4  A    between atoms: C11_8  and  C13_10 
REMARK    5  A    between atoms: C19_14  and  O1_19 
REMARK    6  A    between atoms: C21_16  and  O_21 
REMARK    7  A    between atoms: C17_23  and  N1_24 
REMARK    8  A    between atoms: N1_24  and  C5_28 
REMARK    9  A    between atoms: N1_24  and  C4_25 
ROOT
ATOM      1  C7  5SF A 803      86.918   1.052   9.298  1.00  0.00     0.034 A 
ATOM      2  C8  5SF A 803      86.073   1.081   8.170  1.00  0.00     0.059 A 
ATOM      3  C9  5SF A 803      84.944   1.920   8.180  1.00  0.00     0.061 A 
ATOM      4  C10 5SF A 803      84.715   2.765   9.287  1.00  0.00     0.061 A 
ATOM      5  C11 5SF A 803      84.308   1.066   6.146  1.00  0.00     0.061 A 
ATOM      6  C12 5SF A 803      85.437   0.245   6.136  1.00  0.00     0.119 A 
ATOM      7  C5  5SF A 803      85.572   2.728  10.400  1.00  0.00     0.037 A 
ATOM      8  N2  5SF A 803      84.053   1.900   7.142  1.00  0.00    -0.352 N 
ATOM      9  H2  5SF A 803      83.228   2.501   7.135  1.00  0.00     0.166 HD
ATOM     10  N3  5SF A 803      86.325   0.247   7.111  1.00  0.00    -0.362 N 
ATOM     11  H3  5SF A 803      87.156  -0.343   7.080  1.00  0.00     0.165 HD
ATOM     12  C6  5SF A 803      86.672   1.853  10.375  1.00  0.00     0.032 A 
ENDROOT
BRANCH   7  13
ATOM     13  N1  5SF A 803      85.277   3.486  11.562  1.00  0.00    -0.345 N 
BRANCH  13  14
ATOM     14  C17 5SF A 803      83.963   3.990  11.760  1.00  0.00     0.040 A 
ATOM     15  C22 5SF A 803      83.365   3.827  13.009  1.00  0.00     0.066 A 
ATOM     16  C21 5SF A 803      82.047   4.222  13.180  1.00  0.00     0.073 A 
ATOM     17  C20 5SF A 803      81.327   4.780  12.136  1.00  0.00     0.073 A 
ATOM     18  C19 5SF A 803      81.934   4.928  10.897  1.00  0.00     0.073 A 
ATOM     19  C18 5SF A 803      83.262   4.569  10.703  1.00  0.00     0.066 A 
BRANCH  16  20
ATOM     20  O   5SF A 803      81.570   3.995  14.448  1.00  0.00    -0.356 OA
ATOM     21  C23 5SF A 803      80.264   4.447  14.780  1.00  0.00     0.210 C 
ENDBRANCH  16  20
BRANCH  18  22
ATOM     22  O1  5SF A 803      81.314   5.452   9.789  1.00  0.00    -0.356 OA
ATOM     23  C24 5SF A 803      82.046   5.607   8.579  1.00  0.00     0.210 C 
ENDBRANCH  18  22
ENDBRANCH  13  14
BRANCH  13  24
ATOM     24  C4  5SF A 803      86.311   4.049  12.449  1.00  0.00     0.157 C 
BRANCH  24  25
ATOM     25  C3  5SF A 803      86.739   2.944  13.403  1.00  0.00     0.253 C 
BRANCH  25  26
ATOM     26  N   5SF A 803      87.870   3.378  14.240  1.00  0.00    -0.070 N 
ATOM     27  H   5SF A 803      87.501   3.707  15.132  1.00  0.00     0.277 HD
ATOM     28  H   5SF A 803      88.357   4.110  13.723  1.00  0.00     0.277 HD
BRANCH  26  29
ATOM     29  C1  5SF A 803      88.858   2.314  14.510  1.00  0.00     0.178 C 
ATOM     30  C2  5SF A 803      90.074   2.922  15.172  1.00  0.00     0.039 C 
ATOM     31  C   5SF A 803      89.220   1.576  13.248  1.00  0.00     0.039 C 
ENDBRANCH  26  29
ENDBRANCH  25  26
ENDBRANCH  24  25
ENDBRANCH  13  24
ENDBRANCH   7  13
BRANCH   5  32
ATOM     32  C13 5SF A 803      83.339   1.061   5.022  1.00  0.00     0.026 A 
ATOM     33  C14 5SF A 803      83.266   0.168   3.950  1.00  0.00     0.122 A 
ATOM     34  N4  5SF A 803      82.190   0.371   3.206  1.00  0.00    -0.310 N 
ATOM     35  N5  5SF A 803      81.550   1.429   3.804  1.00  0.00    -0.307 N 
ATOM     36  H4  5SF A 803      81.901  -0.144   2.373  1.00  0.00     0.186 HD
ATOM     37  C15 5SF A 803      82.226   1.846   4.882  1.00  0.00     0.124 A 
ATOM     38  C16 5SF A 803      80.302   1.965   3.274  1.00  0.00     0.177 C 
ENDBRANCH   5  32
TORSDOF 9
ENDMDL
