MODEL 1
REMARK VINA RESULT:    -3.945      0.000      0.000
REMARK INTER + INTRA:          -5.702
REMARK INTER:                  -5.329
REMARK INTRA:                  -0.374
REMARK UNBOUND:                -0.374
REMARK  8 active torsions:
REMARK  status: ('A' for Active; 'I' for Inactive)
REMARK    1  A    between atoms: OAQ_1  and  SAN_2 
REMARK    2  A    between atoms: SAN_2  and  CAM_5 
REMARK    3  A    between atoms: SAN_2  and  OAP_4 
REMARK    4  A    between atoms: SAN_2  and  OAO_3 
REMARK    5  A    between atoms: CAM_5  and  CAL_6 
REMARK    6  A    between atoms: CAL_6  and  SAK_7 
REMARK    7  A    between atoms: SAK_7  and  CAB_8 
REMARK    8  A    between atoms: CAD_10  and  OAI_11 
ROOT
ATOM      1  CAB 3M8 A 601      17.980  -9.076  -3.558  1.00  0.00     0.027 A 
ATOM      2  CAC 3M8 A 601      17.932  -8.966  -4.969  1.00  0.00     0.056 A 
ATOM      3  CAD 3M8 A 601      17.961  -7.731  -5.605  1.00  0.00     0.070 A 
ATOM      4  CAE 3M8 A 601      18.010  -6.494  -4.950  1.00  0.00     0.080 A 
ATOM      5  CAF 3M8 A 601      17.960  -6.632  -3.535  1.00  0.00     0.141 A 
ATOM      6  FAH 3M8 A 601      18.055  -5.512  -2.806  1.00  0.00    -0.204 F 
ATOM      7  CAA 3M8 A 601      17.977  -7.859  -2.855  1.00  0.00     0.100 A 
ATOM      8  CAG 3M8 A 601      17.967  -7.868  -1.517  1.00  0.00     0.104 C 
ATOM      9  NAJ 3M8 A 601      17.967  -7.870  -0.382  1.00  0.00    -0.191 NA
ENDROOT
BRANCH   1  10
ATOM     10  SAK 3M8 A 601      18.112 -10.566  -2.700  1.00  0.00    -0.127 SA
BRANCH  10  11
ATOM     11  CAL 3M8 A 601      16.532 -11.189  -3.205  1.00  0.00     0.094 C 
BRANCH  11  12
ATOM     12  CAM 3M8 A 601      15.390 -10.979  -2.179  1.00  0.00     0.147 C 
BRANCH  12  13
ATOM     13  SAN 3M8 A 601      13.931 -11.172  -2.973  1.00  0.00     0.081 S 
BRANCH  13  14
ATOM     14  OAQ 3M8 A 601      13.808 -10.091  -3.935  1.00  0.00    -0.308 OA
ATOM     15  H   3M8 A 601      13.280  -9.375  -3.551  1.00  0.00     0.230 HD
ENDBRANCH  13  14
BRANCH  13  16
ATOM     16  OAP 3M8 A 601      12.846 -11.065  -1.951  1.00  0.00    -0.308 OA
ATOM     17  H   3M8 A 601      12.089 -11.607  -2.224  1.00  0.00     0.230 HD
ENDBRANCH  13  16
BRANCH  13  18
ATOM     18  OAO 3M8 A 601      13.893 -12.432  -3.695  1.00  0.00    -0.308 OA
ATOM     19  H   3M8 A 601      14.760 -12.864  -3.638  1.00  0.00     0.230 HD
ENDBRANCH  13  18
ENDBRANCH  12  13
ENDBRANCH  11  12
ENDBRANCH  10  11
ENDBRANCH   1  10
BRANCH   3  20
ATOM     20  OAI 3M8 A 601      18.056  -7.686  -6.953  1.00  0.00    -0.361 OA
ATOM     21  H   3M8 A 601      18.895  -7.598  -7.360  1.00  0.00     0.217 HD
ENDBRANCH   3  20
TORSDOF 8
ENDMDL
MODEL 2
REMARK VINA RESULT:    -3.878      0.071      1.022
REMARK INTER + INTRA:          -5.612
REMARK INTER:                  -5.241
REMARK INTRA:                  -0.371
REMARK UNBOUND:                -0.374
REMARK  8 active torsions:
REMARK  status: ('A' for Active; 'I' for Inactive)
REMARK    1  A    between atoms: OAQ_1  and  SAN_2 
REMARK    2  A    between atoms: SAN_2  and  CAM_5 
REMARK    3  A    between atoms: SAN_2  and  OAP_4 
REMARK    4  A    between atoms: SAN_2  and  OAO_3 
REMARK    5  A    between atoms: CAM_5  and  CAL_6 
REMARK    6  A    between atoms: CAL_6  and  SAK_7 
REMARK    7  A    between atoms: SAK_7  and  CAB_8 
REMARK    8  A    between atoms: CAD_10  and  OAI_11 
ROOT
ATOM      1  CAB 3M8 A 601      17.968  -9.108  -3.575  1.00  0.00     0.027 A 
ATOM      2  CAC 3M8 A 601      17.886  -8.988  -4.983  1.00  0.00     0.056 A 
ATOM      3  CAD 3M8 A 601      17.924  -7.750  -5.612  1.00  0.00     0.070 A 
ATOM      4  CAE 3M8 A 601      18.016  -6.518  -4.951  1.00  0.00     0.080 A 
ATOM      5  CAF 3M8 A 601      18.000  -6.665  -3.537  1.00  0.00     0.141 A 
ATOM      6  FAH 3M8 A 601      18.137  -5.552  -2.803  1.00  0.00    -0.204 F 
ATOM      7  CAA 3M8 A 601      18.009  -7.896  -2.865  1.00  0.00     0.100 A 
ATOM      8  CAG 3M8 A 601      18.033  -7.913  -1.526  1.00  0.00     0.104 C 
ATOM      9  NAJ 3M8 A 601      18.063  -7.923  -0.392  1.00  0.00    -0.191 NA
ENDROOT
BRANCH   1  10
ATOM     10  SAK 3M8 A 601      18.092 -10.606  -2.729  1.00  0.00    -0.127 SA
BRANCH  10  11
ATOM     11  CAL 3M8 A 601      16.504 -11.211  -3.230  1.00  0.00     0.094 C 
BRANCH  11  12
ATOM     12  CAM 3M8 A 601      15.363 -10.970  -2.210  1.00  0.00     0.147 C 
BRANCH  12  13
ATOM     13  SAN 3M8 A 601      13.904 -11.102  -3.016  1.00  0.00     0.081 S 
BRANCH  13  14
ATOM     14  OAQ 3M8 A 601      12.848 -11.072  -2.019  1.00  0.00    -0.308 OA
ATOM     15  H   3M8 A 601      12.279 -11.850  -2.128  1.00  0.00     0.230 HD
ENDBRANCH  13  14
BRANCH  13  16
ATOM     16  OAP 3M8 A 601      13.897 -12.419  -3.721  1.00  0.00    -0.308 OA
ATOM     17  H   3M8 A 601      14.006 -12.276  -4.674  1.00  0.00     0.230 HD
ENDBRANCH  13  16
BRANCH  13  18
ATOM     18  OAO 3M8 A 601      13.706  -9.984  -3.922  1.00  0.00    -0.308 OA
ATOM     19  H   3M8 A 601      13.762 -10.297  -4.838  1.00  0.00     0.230 HD
ENDBRANCH  13  18
ENDBRANCH  12  13
ENDBRANCH  11  12
ENDBRANCH  10  11
ENDBRANCH   1  10
BRANCH   3  20
ATOM     20  OAI 3M8 A 601      17.985  -7.698  -6.962  1.00  0.00    -0.361 OA
ATOM     21  H   3M8 A 601      17.774  -8.457  -7.469  1.00  0.00     0.217 HD
ENDBRANCH   3  20
TORSDOF 8
ENDMDL
MODEL 3
REMARK VINA RESULT:    -3.836      3.896      5.209
REMARK INTER + INTRA:          -5.555
REMARK INTER:                  -5.070
REMARK INTRA:                  -0.485
REMARK UNBOUND:                -0.374
REMARK  8 active torsions:
REMARK  status: ('A' for Active; 'I' for Inactive)
REMARK    1  A    between atoms: OAQ_1  and  SAN_2 
REMARK    2  A    between atoms: SAN_2  and  CAM_5 
REMARK    3  A    between atoms: SAN_2  and  OAP_4 
REMARK    4  A    between atoms: SAN_2  and  OAO_3 
REMARK    5  A    between atoms: CAM_5  and  CAL_6 
REMARK    6  A    between atoms: CAL_6  and  SAK_7 
REMARK    7  A    between atoms: SAK_7  and  CAB_8 
REMARK    8  A    between atoms: CAD_10  and  OAI_11 
ROOT
ATOM      1  CAB 3M8 A 601      17.144  -8.740  -4.706  1.00  0.00     0.027 A 
ATOM      2  CAC 3M8 A 601      16.662  -9.825  -3.934  1.00  0.00     0.056 A 
ATOM      3  CAD 3M8 A 601      15.318 -10.178  -3.935  1.00  0.00     0.070 A 
ATOM      4  CAE 3M8 A 601      14.315  -9.511  -4.650  1.00  0.00     0.080 A 
ATOM      5  CAF 3M8 A 601      14.813  -8.370  -5.338  1.00  0.00     0.141 A 
ATOM      6  FAH 3M8 A 601      13.947  -7.687  -6.099  1.00  0.00    -0.204 F 
ATOM      7  CAA 3M8 A 601      16.167  -8.007  -5.400  1.00  0.00     0.100 A 
ATOM      8  CAG 3M8 A 601      16.526  -6.932  -6.113  1.00  0.00     0.104 C 
ATOM      9  NAJ 3M8 A 601      16.827  -6.026  -6.725  1.00  0.00    -0.191 NA
ENDROOT
BRANCH   1  10
ATOM     10  SAK 3M8 A 601      18.812  -8.339  -4.889  1.00  0.00    -0.127 SA
BRANCH  10  11
ATOM     11  CAL 3M8 A 601      19.156  -8.268  -3.152  1.00  0.00     0.094 C 
BRANCH  11  12
ATOM     12  CAM 3M8 A 601      19.236  -6.839  -2.561  1.00  0.00     0.147 C 
BRANCH  12  13
ATOM     13  SAN 3M8 A 601      18.332  -6.802  -1.154  1.00  0.00     0.081 S 
BRANCH  13  14
ATOM     14  OAQ 3M8 A 601      19.259  -6.766  -0.037  1.00  0.00    -0.308 OA
ATOM     15  H   3M8 A 601      19.184  -5.912   0.417  1.00  0.00     0.230 HD
ENDBRANCH  13  14
BRANCH  13  16
ATOM     16  OAP 3M8 A 601      17.528  -8.059  -1.104  1.00  0.00    -0.308 OA
ATOM     17  H   3M8 A 601      18.014  -8.773  -1.547  1.00  0.00     0.230 HD
ENDBRANCH  13  16
BRANCH  13  18
ATOM     18  OAO 3M8 A 601      17.505  -5.609  -1.099  1.00  0.00    -0.308 OA
ATOM     19  H   3M8 A 601      17.857  -4.942  -1.709  1.00  0.00     0.230 HD
ENDBRANCH  13  18
ENDBRANCH  12  13
ENDBRANCH  11  12
ENDBRANCH  10  11
ENDBRANCH   1  10
BRANCH   3  20
ATOM     20  OAI 3M8 A 601      14.933 -11.305  -3.295  1.00  0.00    -0.361 OA
ATOM     21  H   3M8 A 601      15.577 -11.880  -2.932  1.00  0.00     0.217 HD
ENDBRANCH   3  20
TORSDOF 8
ENDMDL
MODEL 4
REMARK VINA RESULT:    -3.773      3.443      5.632
REMARK INTER + INTRA:          -5.470
REMARK INTER:                  -5.067
REMARK INTRA:                  -0.402
REMARK UNBOUND:                -0.374
REMARK  8 active torsions:
REMARK  status: ('A' for Active; 'I' for Inactive)
REMARK    1  A    between atoms: OAQ_1  and  SAN_2 
REMARK    2  A    between atoms: SAN_2  and  CAM_5 
REMARK    3  A    between atoms: SAN_2  and  OAP_4 
REMARK    4  A    between atoms: SAN_2  and  OAO_3 
REMARK    5  A    between atoms: CAM_5  and  CAL_6 
REMARK    6  A    between atoms: CAL_6  and  SAK_7 
REMARK    7  A    between atoms: SAK_7  and  CAB_8 
REMARK    8  A    between atoms: CAD_10  and  OAI_11 
ROOT
ATOM      1  CAB 3M8 A 601      16.850  -9.731  -3.772  1.00  0.00     0.027 A 
ATOM      2  CAC 3M8 A 601      16.018  -8.808  -4.452  1.00  0.00     0.056 A 
ATOM      3  CAD 3M8 A 601      14.756  -9.166  -4.910  1.00  0.00     0.070 A 
ATOM      4  CAE 3M8 A 601      14.190 -10.442  -4.783  1.00  0.00     0.080 A 
ATOM      5  CAF 3M8 A 601      15.086 -11.370  -4.183  1.00  0.00     0.141 A 
ATOM      6  FAH 3M8 A 601      14.627 -12.610  -3.964  1.00  0.00    -0.204 F 
ATOM      7  CAA 3M8 A 601      16.347 -11.038  -3.667  1.00  0.00     0.100 A 
ATOM      8  CAG 3M8 A 601      17.090 -11.989  -3.087  1.00  0.00     0.104 C 
ATOM      9  NAJ 3M8 A 601      17.712 -12.796  -2.588  1.00  0.00    -0.191 NA
ENDROOT
BRANCH   1  10
ATOM     10  SAK 3M8 A 601      18.355  -9.325  -3.032  1.00  0.00    -0.127 SA
BRANCH  10  11
ATOM     11  CAL 3M8 A 601      19.202  -8.989  -4.553  1.00  0.00     0.094 C 
BRANCH  11  12
ATOM     12  CAM 3M8 A 601      19.743  -7.544  -4.692  1.00  0.00     0.147 C 
BRANCH  12  13
ATOM     13  SAN 3M8 A 601      19.435  -7.018  -6.249  1.00  0.00     0.081 S 
BRANCH  13  14
ATOM     14  OAQ 3M8 A 601      18.759  -5.736  -6.154  1.00  0.00    -0.308 OA
ATOM     15  H   3M8 A 601      19.164  -5.209  -5.448  1.00  0.00     0.230 HD
ENDBRANCH  13  14
BRANCH  13  16
ATOM     16  OAP 3M8 A 601      18.533  -8.019  -6.893  1.00  0.00    -0.308 OA
ATOM     17  H   3M8 A 601      18.475  -7.838  -7.844  1.00  0.00     0.230 HD
ENDBRANCH  13  16
BRANCH  13  18
ATOM     18  OAO 3M8 A 601      20.672  -6.826  -6.987  1.00  0.00    -0.308 OA
ATOM     19  H   3M8 A 601      21.089  -7.687  -7.149  1.00  0.00     0.230 HD
ENDBRANCH  13  18
ENDBRANCH  12  13
ENDBRANCH  11  12
ENDBRANCH  10  11
ENDBRANCH   1  10
BRANCH   3  20
ATOM     20  OAI 3M8 A 601      13.947  -8.213  -5.425  1.00  0.00    -0.361 OA
ATOM     21  H   3M8 A 601      14.063  -7.930  -6.310  1.00  0.00     0.217 HD
ENDBRANCH   3  20
TORSDOF 8
ENDMDL
MODEL 5
REMARK VINA RESULT:    -3.766      3.557      4.270
REMARK INTER + INTRA:          -5.461
REMARK INTER:                  -4.781
REMARK INTRA:                  -0.680
REMARK UNBOUND:                -0.374
REMARK  8 active torsions:
REMARK  status: ('A' for Active; 'I' for Inactive)
REMARK    1  A    between atoms: OAQ_1  and  SAN_2 
REMARK    2  A    between atoms: SAN_2  and  CAM_5 
REMARK    3  A    between atoms: SAN_2  and  OAP_4 
REMARK    4  A    between atoms: SAN_2  and  OAO_3 
REMARK    5  A    between atoms: CAM_5  and  CAL_6 
REMARK    6  A    between atoms: CAL_6  and  SAK_7 
REMARK    7  A    between atoms: SAK_7  and  CAB_8 
REMARK    8  A    between atoms: CAD_10  and  OAI_11 
ROOT
ATOM      1  CAB 3M8 A 601      18.347  -8.665  -4.946  1.00  0.00     0.027 A 
ATOM      2  CAC 3M8 A 601      18.554  -7.773  -6.027  1.00  0.00     0.056 A 
ATOM      3  CAD 3M8 A 601      17.510  -7.040  -6.576  1.00  0.00     0.070 A 
ATOM      4  CAE 3M8 A 601      16.174  -7.114  -6.161  1.00  0.00     0.080 A 
ATOM      5  CAF 3M8 A 601      15.981  -8.086  -5.140  1.00  0.00     0.141 A 
ATOM      6  FAH 3M8 A 601      14.748  -8.204  -4.630  1.00  0.00    -0.204 F 
ATOM      7  CAA 3M8 A 601      17.015  -8.813  -4.529  1.00  0.00     0.100 A 
ATOM      8  CAG 3M8 A 601      16.719  -9.675  -3.549  1.00  0.00     0.104 C 
ATOM      9  NAJ 3M8 A 601      16.465 -10.399  -2.713  1.00  0.00    -0.191 NA
ENDROOT
BRANCH   1  10
ATOM     10  SAK 3M8 A 601      19.609  -9.485  -4.104  1.00  0.00    -0.127 SA
BRANCH  10  11
ATOM     11  CAL 3M8 A 601      19.945  -8.160  -2.977  1.00  0.00     0.094 C 
BRANCH  11  12
ATOM     12  CAM 3M8 A 601      19.622  -8.468  -1.493  1.00  0.00     0.147 C 
BRANCH  12  13
ATOM     13  SAN 3M8 A 601      18.533  -7.325  -0.945  1.00  0.00     0.081 S 
BRANCH  13  14
ATOM     14  OAQ 3M8 A 601      19.236  -6.460  -0.013  1.00  0.00    -0.308 OA
ATOM     15  H   3M8 A 601      19.915  -6.972   0.452  1.00  0.00     0.230 HD
ENDBRANCH  13  14
BRANCH  13  16
ATOM     16  OAP 3M8 A 601      17.438  -8.051  -0.234  1.00  0.00    -0.308 OA
ATOM     17  H   3M8 A 601      17.793  -8.467   0.567  1.00  0.00     0.230 HD
ENDBRANCH  13  16
BRANCH  13  18
ATOM     18  OAO 3M8 A 601      18.040  -6.508  -2.040  1.00  0.00    -0.308 OA
ATOM     19  H   3M8 A 601      17.690  -5.673  -1.690  1.00  0.00     0.230 HD
ENDBRANCH  13  18
ENDBRANCH  12  13
ENDBRANCH  11  12
ENDBRANCH  10  11
ENDBRANCH   1  10
BRANCH   3  20
ATOM     20  OAI 3M8 A 601      17.783  -6.100  -7.509  1.00  0.00    -0.361 OA
ATOM     21  H   3M8 A 601      17.725  -5.191  -7.288  1.00  0.00     0.217 HD
ENDBRANCH   3  20
TORSDOF 8
ENDMDL
MODEL 6
REMARK VINA RESULT:    -3.717      2.165      2.487
REMARK INTER + INTRA:          -5.394
REMARK INTER:                  -5.184
REMARK INTRA:                  -0.210
REMARK UNBOUND:                -0.374
REMARK  8 active torsions:
REMARK  status: ('A' for Active; 'I' for Inactive)
REMARK    1  A    between atoms: OAQ_1  and  SAN_2 
REMARK    2  A    between atoms: SAN_2  and  CAM_5 
REMARK    3  A    between atoms: SAN_2  and  OAP_4 
REMARK    4  A    between atoms: SAN_2  and  OAO_3 
REMARK    5  A    between atoms: CAM_5  and  CAL_6 
REMARK    6  A    between atoms: CAL_6  and  SAK_7 
REMARK    7  A    between atoms: SAK_7  and  CAB_8 
REMARK    8  A    between atoms: CAD_10  and  OAI_11 
ROOT
ATOM      1  CAB 3M8 A 601      17.561  -8.893  -4.120  1.00  0.00     0.027 A 
ATOM      2  CAC 3M8 A 601      16.634  -7.982  -4.684  1.00  0.00     0.056 A 
ATOM      3  CAD 3M8 A 601      17.016  -7.061  -5.651  1.00  0.00     0.070 A 
ATOM      4  CAE 3M8 A 601      18.319  -6.910  -6.144  1.00  0.00     0.080 A 
ATOM      5  CAF 3M8 A 601      19.244  -7.771  -5.491  1.00  0.00     0.141 A 
ATOM      6  FAH 3M8 A 601      20.512  -7.749  -5.922  1.00  0.00    -0.204 F 
ATOM      7  CAA 3M8 A 601      18.891  -8.745  -4.545  1.00  0.00     0.100 A 
ATOM      8  CAG 3M8 A 601      19.844  -9.528  -4.023  1.00  0.00     0.104 C 
ATOM      9  NAJ 3M8 A 601      20.653 -10.196  -3.591  1.00  0.00    -0.191 NA
ENDROOT
BRANCH   1  10
ATOM     10  SAK 3M8 A 601      17.138 -10.170  -3.040  1.00  0.00    -0.127 SA
BRANCH  10  11
ATOM     11  CAL 3M8 A 601      16.133 -11.047  -4.206  1.00  0.00     0.094 C 
BRANCH  11  12
ATOM     12  CAM 3M8 A 601      15.101 -12.017  -3.578  1.00  0.00     0.147 C 
BRANCH  12  13
ATOM     13  SAN 3M8 A 601      14.022 -11.117  -2.671  1.00  0.00     0.081 S 
BRANCH  13  14
ATOM     14  OAQ 3M8 A 601      12.840 -11.934  -2.457  1.00  0.00    -0.308 OA
ATOM     15  H   3M8 A 601      12.633 -11.960  -1.510  1.00  0.00     0.230 HD
ENDBRANCH  13  14
BRANCH  13  16
ATOM     16  OAP 3M8 A 601      13.663  -9.907  -3.470  1.00  0.00    -0.308 OA
ATOM     17  H   3M8 A 601      13.494  -9.162  -2.871  1.00  0.00     0.230 HD
ENDBRANCH  13  16
BRANCH  13  18
ATOM     18  OAO 3M8 A 601      14.585 -10.782  -1.374  1.00  0.00    -0.308 OA
ATOM     19  H   3M8 A 601      15.405 -10.279  -1.498  1.00  0.00     0.230 HD
ENDBRANCH  13  18
ENDBRANCH  12  13
ENDBRANCH  11  12
ENDBRANCH  10  11
ENDBRANCH   1  10
BRANCH   3  20
ATOM     20  OAI 3M8 A 601      16.068  -6.313  -6.258  1.00  0.00    -0.361 OA
ATOM     21  H   3M8 A 601      15.236  -6.186  -5.846  1.00  0.00     0.217 HD
ENDBRANCH   3  20
TORSDOF 8
ENDMDL
MODEL 7
REMARK VINA RESULT:    -3.671      3.803      5.009
REMARK INTER + INTRA:          -5.333
REMARK INTER:                  -4.803
REMARK INTRA:                  -0.530
REMARK UNBOUND:                -0.374
REMARK  8 active torsions:
REMARK  status: ('A' for Active; 'I' for Inactive)
REMARK    1  A    between atoms: OAQ_1  and  SAN_2 
REMARK    2  A    between atoms: SAN_2  and  CAM_5 
REMARK    3  A    between atoms: SAN_2  and  OAP_4 
REMARK    4  A    between atoms: SAN_2  and  OAO_3 
REMARK    5  A    between atoms: CAM_5  and  CAL_6 
REMARK    6  A    between atoms: CAL_6  and  SAK_7 
REMARK    7  A    between atoms: SAK_7  and  CAB_8 
REMARK    8  A    between atoms: CAD_10  and  OAI_11 
ROOT
ATOM      1  CAB 3M8 A 601      17.579  -8.706  -4.706  1.00  0.00     0.027 A 
ATOM      2  CAC 3M8 A 601      16.776  -9.580  -3.934  1.00  0.00     0.056 A 
ATOM      3  CAD 3M8 A 601      15.396  -9.628  -4.089  1.00  0.00     0.070 A 
ATOM      4  CAE 3M8 A 601      14.661  -8.828  -4.974  1.00  0.00     0.080 A 
ATOM      5  CAF 3M8 A 601      15.483  -7.895  -5.665  1.00  0.00     0.141 A 
ATOM      6  FAH 3M8 A 601      14.890  -7.114  -6.578  1.00  0.00    -0.204 F 
ATOM      7  CAA 3M8 A 601      16.882  -7.846  -5.571  1.00  0.00     0.100 A 
ATOM      8  CAG 3M8 A 601      17.557  -6.949  -6.300  1.00  0.00     0.104 C 
ATOM      9  NAJ 3M8 A 601      18.126  -6.193  -6.926  1.00  0.00    -0.191 NA
ENDROOT
BRANCH   1  10
ATOM     10  SAK 3M8 A 601      19.304  -8.700  -4.693  1.00  0.00    -0.127 SA
BRANCH  10  11
ATOM     11  CAL 3M8 A 601      19.455  -8.365  -2.959  1.00  0.00     0.094 C 
BRANCH  11  12
ATOM     12  CAM 3M8 A 601      19.197  -6.892  -2.555  1.00  0.00     0.147 C 
BRANCH  12  13
ATOM     13  SAN 3M8 A 601      18.368  -6.885  -1.103  1.00  0.00     0.081 S 
BRANCH  13  14
ATOM     14  OAQ 3M8 A 601      17.465  -5.748  -1.119  1.00  0.00    -0.308 OA
ATOM     15  H   3M8 A 601      17.770  -5.085  -0.480  1.00  0.00     0.230 HD
ENDBRANCH  13  14
BRANCH  13  16
ATOM     16  OAP 3M8 A 601      19.374  -6.717  -0.011  1.00  0.00    -0.308 OA
ATOM     17  H   3M8 A 601      20.212  -6.406  -0.389  1.00  0.00     0.230 HD
ENDBRANCH  13  16
BRANCH  13  18
ATOM     18  OAO 3M8 A 601      17.576  -8.093  -0.949  1.00  0.00    -0.308 OA
ATOM     19  H   3M8 A 601      18.072  -8.851  -1.295  1.00  0.00     0.230 HD
ENDBRANCH  13  18
ENDBRANCH  12  13
ENDBRANCH  11  12
ENDBRANCH  10  11
ENDBRANCH   1  10
BRANCH   3  20
ATOM     20  OAI 3M8 A 601      14.692 -10.577  -3.432  1.00  0.00    -0.361 OA
ATOM     21  H   3M8 A 601      15.048 -11.438  -3.331  1.00  0.00     0.217 HD
ENDBRANCH   3  20
TORSDOF 8
ENDMDL
MODEL 8
REMARK VINA RESULT:    -3.665      3.444      5.648
REMARK INTER + INTRA:          -5.324
REMARK INTER:                  -4.951
REMARK INTRA:                  -0.373
REMARK UNBOUND:                -0.374
REMARK  8 active torsions:
REMARK  status: ('A' for Active; 'I' for Inactive)
REMARK    1  A    between atoms: OAQ_1  and  SAN_2 
REMARK    2  A    between atoms: SAN_2  and  CAM_5 
REMARK    3  A    between atoms: SAN_2  and  OAP_4 
REMARK    4  A    between atoms: SAN_2  and  OAO_3 
REMARK    5  A    between atoms: CAM_5  and  CAL_6 
REMARK    6  A    between atoms: CAL_6  and  SAK_7 
REMARK    7  A    between atoms: SAK_7  and  CAB_8 
REMARK    8  A    between atoms: CAD_10  and  OAI_11 
ROOT
ATOM      1  CAB 3M8 A 601      16.815  -9.754  -3.812  1.00  0.00     0.027 A 
ATOM      2  CAC 3M8 A 601      16.004  -8.847  -4.536  1.00  0.00     0.056 A 
ATOM      3  CAD 3M8 A 601      14.761  -9.219  -5.032  1.00  0.00     0.070 A 
ATOM      4  CAE 3M8 A 601      14.196 -10.495  -4.905  1.00  0.00     0.080 A 
ATOM      5  CAF 3M8 A 601      15.074 -11.409  -4.258  1.00  0.00     0.141 A 
ATOM      6  FAH 3M8 A 601      14.614 -12.648  -4.036  1.00  0.00    -0.204 F 
ATOM      7  CAA 3M8 A 601      16.315 -11.062  -3.703  1.00  0.00     0.100 A 
ATOM      8  CAG 3M8 A 601      17.041 -12.000  -3.082  1.00  0.00     0.104 C 
ATOM      9  NAJ 3M8 A 601      17.648 -12.796  -2.548  1.00  0.00    -0.191 NA
ENDROOT
BRANCH   1  10
ATOM     10  SAK 3M8 A 601      18.290  -9.329  -3.025  1.00  0.00    -0.127 SA
BRANCH  10  11
ATOM     11  CAL 3M8 A 601      19.157  -8.911  -4.513  1.00  0.00     0.094 C 
BRANCH  11  12
ATOM     12  CAM 3M8 A 601      19.653  -7.445  -4.589  1.00  0.00     0.147 C 
BRANCH  12  13
ATOM     13  SAN 3M8 A 601      19.427  -6.895  -6.152  1.00  0.00     0.081 S 
BRANCH  13  14
ATOM     14  OAQ 3M8 A 601      20.718  -6.918  -6.817  1.00  0.00    -0.308 OA
ATOM     15  H   3M8 A 601      21.262  -7.628  -6.441  1.00  0.00     0.230 HD
ENDBRANCH  13  14
BRANCH  13  16
ATOM     16  OAP 3M8 A 601      18.927  -5.490  -6.065  1.00  0.00    -0.308 OA
ATOM     17  H   3M8 A 601      18.241  -5.349  -6.736  1.00  0.00     0.230 HD
ENDBRANCH  13  16
BRANCH  13  18
ATOM     18  OAO 3M8 A 601      18.522  -7.764  -6.884  1.00  0.00    -0.308 OA
ATOM     19  H   3M8 A 601      18.860  -7.900  -7.783  1.00  0.00     0.230 HD
ENDBRANCH  13  18
ENDBRANCH  12  13
ENDBRANCH  11  12
ENDBRANCH  10  11
ENDBRANCH   1  10
BRANCH   3  20
ATOM     20  OAI 3M8 A 601      13.966  -8.279  -5.591  1.00  0.00    -0.361 OA
ATOM     21  H   3M8 A 601      13.356  -8.519  -6.260  1.00  0.00     0.217 HD
ENDBRANCH   3  20
TORSDOF 8
ENDMDL
MODEL 9
REMARK VINA RESULT:    -3.641      3.347      4.745
REMARK INTER + INTRA:          -5.293
REMARK INTER:                  -4.720
REMARK INTRA:                  -0.572
REMARK UNBOUND:                -0.374
REMARK  8 active torsions:
REMARK  status: ('A' for Active; 'I' for Inactive)
REMARK    1  A    between atoms: OAQ_1  and  SAN_2 
REMARK    2  A    between atoms: SAN_2  and  CAM_5 
REMARK    3  A    between atoms: SAN_2  and  OAP_4 
REMARK    4  A    between atoms: SAN_2  and  OAO_3 
REMARK    5  A    between atoms: CAM_5  and  CAL_6 
REMARK    6  A    between atoms: CAL_6  and  SAK_7 
REMARK    7  A    between atoms: SAK_7  and  CAB_8 
REMARK    8  A    between atoms: CAD_10  and  OAI_11 
ROOT
ATOM      1  CAB 3M8 A 601      19.842  -9.415  -2.321  1.00  0.00     0.027 A 
ATOM      2  CAC 3M8 A 601      19.849 -10.678  -2.963  1.00  0.00     0.056 A 
ATOM      3  CAD 3M8 A 601      18.927 -11.665  -2.637  1.00  0.00     0.070 A 
ATOM      4  CAE 3M8 A 601      17.939 -11.544  -1.651  1.00  0.00     0.080 A 
ATOM      5  CAF 3M8 A 601      18.019 -10.304  -0.959  1.00  0.00     0.141 A 
ATOM      6  FAH 3M8 A 601      17.085 -10.060  -0.029  1.00  0.00    -0.204 F 
ATOM      7  CAA 3M8 A 601      18.902  -9.265  -1.288  1.00  0.00     0.100 A 
ATOM      8  CAG 3M8 A 601      18.861  -8.123  -0.590  1.00  0.00     0.104 C 
ATOM      9  NAJ 3M8 A 601      18.817  -7.154  -0.002  1.00  0.00    -0.191 NA
ENDROOT
BRANCH   1  10
ATOM     10  SAK 3M8 A 601      20.839  -8.084  -2.778  1.00  0.00    -0.127 SA
BRANCH  10  11
ATOM     11  CAL 3M8 A 601      20.257  -8.008  -4.450  1.00  0.00     0.094 C 
BRANCH  11  12
ATOM     12  CAM 3M8 A 601      18.928  -7.236  -4.643  1.00  0.00     0.147 C 
BRANCH  12  13
ATOM     13  SAN 3M8 A 601      17.959  -8.114  -5.686  1.00  0.00     0.081 S 
BRANCH  13  14
ATOM     14  OAQ 3M8 A 601      18.420  -7.854  -7.038  1.00  0.00    -0.308 OA
ATOM     15  H   3M8 A 601      19.370  -7.658  -7.023  1.00  0.00     0.230 HD
ENDBRANCH  13  14
BRANCH  13  16
ATOM     16  OAP 3M8 A 601      16.559  -7.618  -5.524  1.00  0.00    -0.308 OA
ATOM     17  H   3M8 A 601      16.554  -6.856  -4.923  1.00  0.00     0.230 HD
ENDBRANCH  13  16
BRANCH  13  18
ATOM     18  OAO 3M8 A 601      18.078  -9.539  -5.431  1.00  0.00    -0.308 OA
ATOM     19  H   3M8 A 601      17.649 -10.033  -6.148  1.00  0.00     0.230 HD
ENDBRANCH  13  18
ENDBRANCH  12  13
ENDBRANCH  11  12
ENDBRANCH  10  11
ENDBRANCH   1  10
BRANCH   3  20
ATOM     20  OAI 3M8 A 601      18.886 -12.797  -3.375  1.00  0.00    -0.361 OA
ATOM     21  H   3M8 A 601      18.367 -12.828  -4.154  1.00  0.00     0.217 HD
ENDBRANCH   3  20
TORSDOF 8
ENDMDL
MODEL 10
REMARK VINA RESULT:    -3.614      3.690      5.101
REMARK INTER + INTRA:          -5.255
REMARK INTER:                  -4.434
REMARK INTRA:                  -0.822
REMARK UNBOUND:                -0.374
REMARK  8 active torsions:
REMARK  status: ('A' for Active; 'I' for Inactive)
REMARK    1  A    between atoms: OAQ_1  and  SAN_2 
REMARK    2  A    between atoms: SAN_2  and  CAM_5 
REMARK    3  A    between atoms: SAN_2  and  OAP_4 
REMARK    4  A    between atoms: SAN_2  and  OAO_3 
REMARK    5  A    between atoms: CAM_5  and  CAL_6 
REMARK    6  A    between atoms: CAL_6  and  SAK_7 
REMARK    7  A    between atoms: SAK_7  and  CAB_8 
REMARK    8  A    between atoms: CAD_10  and  OAI_11 
ROOT
ATOM      1  CAB 3M8 A 601      18.100  -8.194  -4.661  1.00  0.00     0.027 A 
ATOM      2  CAC 3M8 A 601      16.776  -8.599  -4.363  1.00  0.00     0.056 A 
ATOM      3  CAD 3M8 A 601      15.691  -8.145  -5.103  1.00  0.00     0.070 A 
ATOM      4  CAE 3M8 A 601      15.772  -7.244  -6.173  1.00  0.00     0.080 A 
ATOM      5  CAF 3M8 A 601      17.101  -6.782  -6.387  1.00  0.00     0.141 A 
ATOM      6  FAH 3M8 A 601      17.303  -5.955  -7.422  1.00  0.00    -0.204 F 
ATOM      7  CAA 3M8 A 601      18.227  -7.250  -5.693  1.00  0.00     0.100 A 
ATOM      8  CAG 3M8 A 601      19.437  -6.770  -6.007  1.00  0.00     0.104 C 
ATOM      9  NAJ 3M8 A 601      20.461  -6.367  -6.282  1.00  0.00    -0.191 NA
ENDROOT
BRANCH   1  10
ATOM     10  SAK 3M8 A 601      19.509  -8.834  -3.901  1.00  0.00    -0.127 SA
BRANCH  10  11
ATOM     11  CAL 3M8 A 601      19.153  -8.163  -2.299  1.00  0.00     0.094 C 
BRANCH  11  12
ATOM     12  CAM 3M8 A 601      19.728  -6.748  -2.043  1.00  0.00     0.147 C 
BRANCH  12  13
ATOM     13  SAN 3M8 A 601      18.462  -5.732  -1.640  1.00  0.00     0.081 S 
BRANCH  13  14
ATOM     14  OAQ 3M8 A 601      17.359  -6.563  -1.191  1.00  0.00    -0.308 OA
ATOM     15  H   3M8 A 601      17.695  -7.435  -0.933  1.00  0.00     0.230 HD
ENDBRANCH  13  14
BRANCH  13  16
ATOM     16  OAP 3M8 A 601      18.069  -4.993  -2.877  1.00  0.00    -0.308 OA
ATOM     17  H   3M8 A 601      18.863  -4.648  -3.315  1.00  0.00     0.230 HD
ENDBRANCH  13  16
BRANCH  13  18
ATOM     18  OAO 3M8 A 601      18.834  -4.842  -0.554  1.00  0.00    -0.308 OA
ATOM     19  H   3M8 A 601      18.173  -4.902   0.154  1.00  0.00     0.230 HD
ENDBRANCH  13  18
ENDBRANCH  12  13
ENDBRANCH  11  12
ENDBRANCH  10  11
ENDBRANCH   1  10
BRANCH   3  20
ATOM     20  OAI 3M8 A 601      14.468  -8.670  -4.869  1.00  0.00    -0.361 OA
ATOM     21  H   3M8 A 601      13.791  -8.136  -4.503  1.00  0.00     0.217 HD
ENDBRANCH   3  20
TORSDOF 8
ENDMDL
MODEL 11
REMARK VINA RESULT:    -3.613      1.145      1.145
REMARK INTER + INTRA:          -5.255
REMARK INTER:                  -4.583
REMARK INTRA:                  -0.671
REMARK UNBOUND:                -0.374
REMARK  8 active torsions:
REMARK  status: ('A' for Active; 'I' for Inactive)
REMARK    1  A    between atoms: OAQ_1  and  SAN_2 
REMARK    2  A    between atoms: SAN_2  and  CAM_5 
REMARK    3  A    between atoms: SAN_2  and  OAP_4 
REMARK    4  A    between atoms: SAN_2  and  OAO_3 
REMARK    5  A    between atoms: CAM_5  and  CAL_6 
REMARK    6  A    between atoms: CAL_6  and  SAK_7 
REMARK    7  A    between atoms: SAK_7  and  CAB_8 
REMARK    8  A    between atoms: CAD_10  and  OAI_11 
ROOT
ATOM      1  CAB 3M8 A 601      18.853  -8.925  -3.206  1.00  0.00     0.027 A 
ATOM      2  CAC 3M8 A 601      18.774  -9.019  -4.617  1.00  0.00     0.056 A 
ATOM      3  CAD 3M8 A 601      18.453  -7.919  -5.403  1.00  0.00     0.070 A 
ATOM      4  CAE 3M8 A 601      18.150  -6.643  -4.910  1.00  0.00     0.080 A 
ATOM      5  CAF 3M8 A 601      18.143  -6.604  -3.488  1.00  0.00     0.141 A 
ATOM      6  FAH 3M8 A 601      17.918  -5.416  -2.909  1.00  0.00    -0.204 F 
ATOM      7  CAA 3M8 A 601      18.507  -7.677  -2.661  1.00  0.00     0.100 A 
ATOM      8  CAG 3M8 A 601      18.500  -7.512  -1.332  1.00  0.00     0.104 C 
ATOM      9  NAJ 3M8 A 601      18.502  -7.366  -0.207  1.00  0.00    -0.191 NA
ENDROOT
BRANCH   1  10
ATOM     10  SAK 3M8 A 601      19.402 -10.192  -2.173  1.00  0.00    -0.127 SA
BRANCH  10  11
ATOM     11  CAL 3M8 A 601      17.992 -11.235  -2.426  1.00  0.00     0.094 C 
BRANCH  11  12
ATOM     12  CAM 3M8 A 601      16.820 -10.996  -1.441  1.00  0.00     0.147 C 
BRANCH  12  13
ATOM     13  SAN 3M8 A 601      15.403 -10.904  -2.325  1.00  0.00     0.081 S 
BRANCH  13  14
ATOM     14  OAQ 3M8 A 601      15.497  -9.737  -3.184  1.00  0.00    -0.308 OA
ATOM     15  H   3M8 A 601      15.873  -9.996  -4.039  1.00  0.00     0.230 HD
ENDBRANCH  13  14
BRANCH  13  16
ATOM     16  OAP 3M8 A 601      14.280 -10.730  -1.356  1.00  0.00    -0.308 OA
ATOM     17  H   3M8 A 601      13.895 -11.596  -1.147  1.00  0.00     0.230 HD
ENDBRANCH  13  16
BRANCH  13  18
ATOM     18  OAO 3M8 A 601      15.237 -12.077  -3.166  1.00  0.00    -0.308 OA
ATOM     19  H   3M8 A 601      15.897 -12.745  -2.924  1.00  0.00     0.230 HD
ENDBRANCH  13  18
ENDBRANCH  12  13
ENDBRANCH  11  12
ENDBRANCH  10  11
ENDBRANCH   1  10
BRANCH   3  20
ATOM     20  OAI 3M8 A 601      18.530  -8.026  -6.748  1.00  0.00    -0.361 OA
ATOM     21  H   3M8 A 601      19.119  -8.644  -7.135  1.00  0.00     0.217 HD
ENDBRANCH   3  20
TORSDOF 8
ENDMDL
MODEL 12
REMARK VINA RESULT:    -3.605      3.828      5.099
REMARK INTER + INTRA:          -5.243
REMARK INTER:                  -4.884
REMARK INTRA:                  -0.358
REMARK UNBOUND:                -0.374
REMARK  8 active torsions:
REMARK  status: ('A' for Active; 'I' for Inactive)
REMARK    1  A    between atoms: OAQ_1  and  SAN_2 
REMARK    2  A    between atoms: SAN_2  and  CAM_5 
REMARK    3  A    between atoms: SAN_2  and  OAP_4 
REMARK    4  A    between atoms: SAN_2  and  OAO_3 
REMARK    5  A    between atoms: CAM_5  and  CAL_6 
REMARK    6  A    between atoms: CAL_6  and  SAK_7 
REMARK    7  A    between atoms: SAK_7  and  CAB_8 
REMARK    8  A    between atoms: CAD_10  and  OAI_11 
ROOT
ATOM      1  CAB 3M8 A 601      17.023  -9.520  -4.240  1.00  0.00     0.027 A 
ATOM      2  CAC 3M8 A 601      16.181  -8.678  -5.006  1.00  0.00     0.056 A 
ATOM      3  CAD 3M8 A 601      14.814  -8.905  -5.099  1.00  0.00     0.070 A 
ATOM      4  CAE 3M8 A 601      14.135  -9.969  -4.491  1.00  0.00     0.080 A 
ATOM      5  CAF 3M8 A 601      15.019 -10.851  -3.809  1.00  0.00     0.141 A 
ATOM      6  FAH 3M8 A 601      14.470 -11.877  -3.145  1.00  0.00    -0.204 F 
ATOM      7  CAA 3M8 A 601      16.396 -10.632  -3.654  1.00  0.00     0.100 A 
ATOM      8  CAG 3M8 A 601      17.125 -11.512  -2.956  1.00  0.00     0.104 C 
ATOM      9  NAJ 3M8 A 601      17.738 -12.256  -2.356  1.00  0.00    -0.191 NA
ENDROOT
BRANCH   1  10
ATOM     10  SAK 3M8 A 601      18.694  -9.217  -3.941  1.00  0.00    -0.127 SA
BRANCH  10  11
ATOM     11  CAL 3M8 A 601      18.504  -7.472  -3.694  1.00  0.00     0.094 C 
BRANCH  11  12
ATOM     12  CAM 3M8 A 601      19.343  -6.883  -2.532  1.00  0.00     0.147 C 
BRANCH  12  13
ATOM     13  SAN 3M8 A 601      18.368  -6.793  -1.176  1.00  0.00     0.081 S 
BRANCH  13  14
ATOM     14  OAQ 3M8 A 601      19.237  -6.699  -0.016  1.00  0.00    -0.308 OA
ATOM     15  H   3M8 A 601      20.139  -6.490  -0.305  1.00  0.00     0.230 HD
ENDBRANCH  13  14
BRANCH  13  16
ATOM     16  OAP 3M8 A 601      17.571  -8.055  -1.110  1.00  0.00    -0.308 OA
ATOM     17  H   3M8 A 601      17.100  -8.184  -1.949  1.00  0.00     0.230 HD
ENDBRANCH  13  16
BRANCH  13  18
ATOM     18  OAO 3M8 A 601      17.531  -5.606  -1.214  1.00  0.00    -0.308 OA
ATOM     19  H   3M8 A 601      16.685  -5.821  -1.637  1.00  0.00     0.230 HD
ENDBRANCH  13  18
ENDBRANCH  12  13
ENDBRANCH  11  12
ENDBRANCH  10  11
ENDBRANCH   1  10
BRANCH   3  20
ATOM     20  OAI 3M8 A 601      14.036  -7.993  -5.725  1.00  0.00    -0.361 OA
ATOM     21  H   3M8 A 601      13.366  -8.277  -6.315  1.00  0.00     0.217 HD
ENDBRANCH   3  20
TORSDOF 8
ENDMDL
MODEL 13
REMARK VINA RESULT:    -3.598      3.648      4.960
REMARK INTER + INTRA:          -5.233
REMARK INTER:                  -4.450
REMARK INTRA:                  -0.783
REMARK UNBOUND:                -0.374
REMARK  8 active torsions:
REMARK  status: ('A' for Active; 'I' for Inactive)
REMARK    1  A    between atoms: OAQ_1  and  SAN_2 
REMARK    2  A    between atoms: SAN_2  and  CAM_5 
REMARK    3  A    between atoms: SAN_2  and  OAP_4 
REMARK    4  A    between atoms: SAN_2  and  OAO_3 
REMARK    5  A    between atoms: CAM_5  and  CAL_6 
REMARK    6  A    between atoms: CAL_6  and  SAK_7 
REMARK    7  A    between atoms: SAK_7  and  CAB_8 
REMARK    8  A    between atoms: CAD_10  and  OAI_11 
ROOT
ATOM      1  CAB 3M8 A 601      17.947  -8.261  -4.661  1.00  0.00     0.027 A 
ATOM      2  CAC 3M8 A 601      16.616  -8.657  -4.384  1.00  0.00     0.056 A 
ATOM      3  CAD 3M8 A 601      15.545  -8.181  -5.131  1.00  0.00     0.070 A 
ATOM      4  CAE 3M8 A 601      15.648  -7.267  -6.188  1.00  0.00     0.080 A 
ATOM      5  CAF 3M8 A 601      16.983  -6.816  -6.379  1.00  0.00     0.141 A 
ATOM      6  FAH 3M8 A 601      17.206  -5.977  -7.401  1.00  0.00    -0.204 F 
ATOM      7  CAA 3M8 A 601      18.096  -7.305  -5.679  1.00  0.00     0.100 A 
ATOM      8  CAG 3M8 A 601      19.315  -6.833  -5.972  1.00  0.00     0.104 C 
ATOM      9  NAJ 3M8 A 601      20.346  -6.437  -6.230  1.00  0.00    -0.191 NA
ENDROOT
BRANCH   1  10
ATOM     10  SAK 3M8 A 601      19.341  -8.926  -3.894  1.00  0.00    -0.127 SA
BRANCH  10  11
ATOM     11  CAL 3M8 A 601      18.928  -8.347  -2.270  1.00  0.00     0.094 C 
BRANCH  11  12
ATOM     12  CAM 3M8 A 601      19.606  -7.016  -1.861  1.00  0.00     0.147 C 
BRANCH  12  13
ATOM     13  SAN 3M8 A 601      18.408  -5.892  -1.550  1.00  0.00     0.081 S 
BRANCH  13  14
ATOM     14  OAQ 3M8 A 601      18.089  -5.231  -2.803  1.00  0.00    -0.308 OA
ATOM     15  H   3M8 A 601      17.138  -5.049  -2.839  1.00  0.00     0.230 HD
ENDBRANCH  13  14
BRANCH  13  16
ATOM     16  OAP 3M8 A 601      18.963  -4.900  -0.581  1.00  0.00    -0.308 OA
ATOM     17  H   3M8 A 601      18.329  -4.175  -0.461  1.00  0.00     0.230 HD
ENDBRANCH  13  16
BRANCH  13  18
ATOM     18  OAO 3M8 A 601      17.203  -6.538  -1.057  1.00  0.00    -0.308 OA
ATOM     19  H   3M8 A 601      16.896  -7.188  -1.708  1.00  0.00     0.230 HD
ENDBRANCH  13  18
ENDBRANCH  12  13
ENDBRANCH  11  12
ENDBRANCH  10  11
ENDBRANCH   1  10
BRANCH   3  20
ATOM     20  OAI 3M8 A 601      14.313  -8.697  -4.919  1.00  0.00    -0.361 OA
ATOM     21  H   3M8 A 601      13.564  -8.295  -5.312  1.00  0.00     0.217 HD
ENDBRANCH   3  20
TORSDOF 8
ENDMDL
MODEL 14
REMARK VINA RESULT:    -3.564      4.034      5.572
REMARK INTER + INTRA:          -5.187
REMARK INTER:                  -4.799
REMARK INTRA:                  -0.388
REMARK UNBOUND:                -0.374
REMARK  8 active torsions:
REMARK  status: ('A' for Active; 'I' for Inactive)
REMARK    1  A    between atoms: OAQ_1  and  SAN_2 
REMARK    2  A    between atoms: SAN_2  and  CAM_5 
REMARK    3  A    between atoms: SAN_2  and  OAP_4 
REMARK    4  A    between atoms: SAN_2  and  OAO_3 
REMARK    5  A    between atoms: CAM_5  and  CAL_6 
REMARK    6  A    between atoms: CAL_6  and  SAK_7 
REMARK    7  A    between atoms: SAK_7  and  CAB_8 
REMARK    8  A    between atoms: CAD_10  and  OAI_11 
ROOT
ATOM      1  CAB 3M8 A 601      17.281  -9.508  -4.011  1.00  0.00     0.027 A 
ATOM      2  CAC 3M8 A 601      17.912 -10.535  -3.268  1.00  0.00     0.056 A 
ATOM      3  CAD 3M8 A 601      17.268 -11.735  -2.991  1.00  0.00     0.070 A 
ATOM      4  CAE 3M8 A 601      15.957 -12.048  -3.375  1.00  0.00     0.080 A 
ATOM      5  CAF 3M8 A 601      15.317 -10.962  -4.035  1.00  0.00     0.141 A 
ATOM      6  FAH 3M8 A 601      14.076 -11.170  -4.494  1.00  0.00    -0.204 F 
ATOM      7  CAA 3M8 A 601      15.946  -9.755  -4.374  1.00  0.00     0.100 A 
ATOM      8  CAG 3M8 A 601      15.254  -8.817  -5.032  1.00  0.00     0.104 C 
ATOM      9  NAJ 3M8 A 601      14.667  -8.028  -5.597  1.00  0.00    -0.191 NA
ENDROOT
BRANCH   1  10
ATOM     10  SAK 3M8 A 601      18.063  -8.063  -4.536  1.00  0.00    -0.127 SA
BRANCH  10  11
ATOM     11  CAL 3M8 A 601      19.182  -7.974  -3.165  1.00  0.00     0.094 C 
BRANCH  11  12
ATOM     12  CAM 3M8 A 601      19.324  -6.568  -2.530  1.00  0.00     0.147 C 
BRANCH  12  13
ATOM     13  SAN 3M8 A 601      18.373  -6.515  -1.156  1.00  0.00     0.081 S 
BRANCH  13  14
ATOM     14  OAQ 3M8 A 601      19.260  -6.394  -0.012  1.00  0.00    -0.308 OA
ATOM     15  H   3M8 A 601      20.109  -6.816  -0.216  1.00  0.00     0.230 HD
ENDBRANCH  13  14
BRANCH  13  16
ATOM     16  OAP 3M8 A 601      17.622  -7.804  -1.079  1.00  0.00    -0.308 OA
ATOM     17  H   3M8 A 601      16.677  -7.637  -1.220  1.00  0.00     0.230 HD
ENDBRANCH  13  16
BRANCH  13  18
ATOM     18  OAO 3M8 A 601      17.494  -5.358  -1.175  1.00  0.00    -0.308 OA
ATOM     19  H   3M8 A 601      17.524  -4.944  -2.051  1.00  0.00     0.230 HD
ENDBRANCH  13  18
ENDBRANCH  12  13
ENDBRANCH  11  12
ENDBRANCH  10  11
ENDBRANCH   1  10
BRANCH   3  20
ATOM     20  OAI 3M8 A 601      17.962 -12.734  -2.402  1.00  0.00    -0.361 OA
ATOM     21  H   3M8 A 601      17.744 -13.006  -1.532  1.00  0.00     0.217 HD
ENDBRANCH   3  20
TORSDOF 8
ENDMDL
MODEL 15
REMARK VINA RESULT:    -3.454      4.444      5.404
REMARK INTER + INTRA:          -5.039
REMARK INTER:                  -4.329
REMARK INTRA:                  -0.710
REMARK UNBOUND:                -0.374
REMARK  8 active torsions:
REMARK  status: ('A' for Active; 'I' for Inactive)
REMARK    1  A    between atoms: OAQ_1  and  SAN_2 
REMARK    2  A    between atoms: SAN_2  and  CAM_5 
REMARK    3  A    between atoms: SAN_2  and  OAP_4 
REMARK    4  A    between atoms: SAN_2  and  OAO_3 
REMARK    5  A    between atoms: CAM_5  and  CAL_6 
REMARK    6  A    between atoms: CAL_6  and  SAK_7 
REMARK    7  A    between atoms: SAK_7  and  CAB_8 
REMARK    8  A    between atoms: CAD_10  and  OAI_11 
ROOT
ATOM      1  CAB 3M8 A 601      19.155  -6.077  -5.654  1.00  0.00     0.027 A 
ATOM      2  CAC 3M8 A 601      19.178  -4.738  -6.114  1.00  0.00     0.056 A 
ATOM      3  CAD 3M8 A 601      18.047  -4.131  -6.645  1.00  0.00     0.070 A 
ATOM      4  CAE 3M8 A 601      16.804  -4.757  -6.809  1.00  0.00     0.080 A 
ATOM      5  CAF 3M8 A 601      16.838  -6.127  -6.428  1.00  0.00     0.141 A 
ATOM      6  FAH 3M8 A 601      15.687  -6.811  -6.494  1.00  0.00    -0.204 F 
ATOM      7  CAA 3M8 A 601      17.945  -6.763  -5.846  1.00  0.00     0.100 A 
ATOM      8  CAG 3M8 A 601      17.849  -8.051  -5.490  1.00  0.00     0.104 C 
ATOM      9  NAJ 3M8 A 601      17.761  -9.139  -5.182  1.00  0.00    -0.191 NA
ENDROOT
BRANCH   1  10
ATOM     10  SAK 3M8 A 601      20.462  -6.849  -4.835  1.00  0.00    -0.127 SA
BRANCH  10  11
ATOM     11  CAL 3M8 A 601      20.314  -5.894  -3.350  1.00  0.00     0.094 C 
BRANCH  11  12
ATOM     12  CAM 3M8 A 601      19.618  -6.623  -2.173  1.00  0.00     0.147 C 
BRANCH  12  13
ATOM     13  SAN 3M8 A 601      18.383  -5.648  -1.609  1.00  0.00     0.081 S 
BRANCH  13  14
ATOM     14  OAQ 3M8 A 601      17.976  -4.779  -2.700  1.00  0.00    -0.308 OA
ATOM     15  H   3M8 A 601      18.676  -4.131  -2.874  1.00  0.00     0.230 HD
ENDBRANCH  13  14
BRANCH  13  16
ATOM     16  OAP 3M8 A 601      18.933  -4.829  -0.488  1.00  0.00    -0.308 OA
ATOM     17  H   3M8 A 601      19.574  -5.356   0.014  1.00  0.00     0.230 HD
ENDBRANCH  13  16
BRANCH  13  18
ATOM     18  OAO 3M8 A 601      17.234  -6.442  -1.207  1.00  0.00    -0.308 OA
ATOM     19  H   3M8 A 601      17.471  -7.383  -1.222  1.00  0.00     0.230 HD
ENDBRANCH  13  18
ENDBRANCH  12  13
ENDBRANCH  11  12
ENDBRANCH  10  11
ENDBRANCH   1  10
BRANCH   3  20
ATOM     20  OAI 3M8 A 601      18.082  -2.812  -6.937  1.00  0.00    -0.361 OA
ATOM     21  H   3M8 A 601      17.285  -2.321  -6.986  1.00  0.00     0.217 HD
ENDBRANCH   3  20
TORSDOF 8
ENDMDL
MODEL 16
REMARK VINA RESULT:    -3.432      3.666      5.171
REMARK INTER + INTRA:          -5.010
REMARK INTER:                  -4.110
REMARK INTRA:                  -0.900
REMARK UNBOUND:                -0.374
REMARK  8 active torsions:
REMARK  status: ('A' for Active; 'I' for Inactive)
REMARK    1  A    between atoms: OAQ_1  and  SAN_2 
REMARK    2  A    between atoms: SAN_2  and  CAM_5 
REMARK    3  A    between atoms: SAN_2  and  OAP_4 
REMARK    4  A    between atoms: SAN_2  and  OAO_3 
REMARK    5  A    between atoms: CAM_5  and  CAL_6 
REMARK    6  A    between atoms: CAL_6  and  SAK_7 
REMARK    7  A    between atoms: SAK_7  and  CAB_8 
REMARK    8  A    between atoms: CAD_10  and  OAI_11 
ROOT
ATOM      1  CAB 3M8 A 601      17.846  -9.804  -3.239  1.00  0.00     0.027 A 
ATOM      2  CAC 3M8 A 601      16.851 -10.052  -4.216  1.00  0.00     0.056 A 
ATOM      3  CAD 3M8 A 601      15.636 -10.639  -3.886  1.00  0.00     0.070 A 
ATOM      4  CAE 3M8 A 601      15.276 -11.066  -2.601  1.00  0.00     0.080 A 
ATOM      5  CAF 3M8 A 601      16.330 -10.892  -1.662  1.00  0.00     0.141 A 
ATOM      6  FAH 3M8 A 601      16.075 -11.218  -0.387  1.00  0.00    -0.204 F 
ATOM      7  CAA 3M8 A 601      17.551 -10.263  -1.944  1.00  0.00     0.100 A 
ATOM      8  CAG 3M8 A 601      18.457 -10.119  -0.968  1.00  0.00     0.104 C 
ATOM      9  NAJ 3M8 A 601      19.218  -9.991  -0.137  1.00  0.00    -0.191 NA
ENDROOT
BRANCH   1  10
ATOM     10  SAK 3M8 A 601      19.307  -8.936  -3.533  1.00  0.00    -0.127 SA
BRANCH  10  11
ATOM     11  CAL 3M8 A 601      18.585  -7.328  -3.340  1.00  0.00     0.094 C 
BRANCH  11  12
ATOM     12  CAM 3M8 A 601      19.401  -6.349  -2.459  1.00  0.00     0.147 C 
BRANCH  12  13
ATOM     13  SAN 3M8 A 601      18.645  -6.227  -0.973  1.00  0.00     0.081 S 
BRANCH  13  14
ATOM     14  OAQ 3M8 A 601      18.699  -4.834  -0.566  1.00  0.00    -0.308 OA
ATOM     15  H   3M8 A 601      18.827  -4.783   0.394  1.00  0.00     0.230 HD
ENDBRANCH  13  14
BRANCH  13  16
ATOM     16  OAP 3M8 A 601      19.414  -7.067  -0.006  1.00  0.00    -0.308 OA
ATOM     17  H   3M8 A 601      19.413  -7.989  -0.307  1.00  0.00     0.230 HD
ENDBRANCH  13  16
BRANCH  13  18
ATOM     18  OAO 3M8 A 601      17.249  -6.620  -1.065  1.00  0.00    -0.308 OA
ATOM     19  H   3M8 A 601      16.759  -5.956  -1.574  1.00  0.00     0.230 HD
ENDBRANCH  13  18
ENDBRANCH  12  13
ENDBRANCH  11  12
ENDBRANCH  10  11
ENDBRANCH   1  10
BRANCH   3  20
ATOM     20  OAI 3M8 A 601      14.668 -10.725  -4.826  1.00  0.00    -0.361 OA
ATOM     21  H   3M8 A 601      13.775 -10.565  -4.593  1.00  0.00     0.217 HD
ENDBRANCH   3  20
TORSDOF 8
ENDMDL
MODEL 17
REMARK VINA RESULT:    -3.421      3.830      5.493
REMARK INTER + INTRA:          -4.995
REMARK INTER:                  -4.680
REMARK INTRA:                  -0.315
REMARK UNBOUND:                -0.374
REMARK  8 active torsions:
REMARK  status: ('A' for Active; 'I' for Inactive)
REMARK    1  A    between atoms: OAQ_1  and  SAN_2 
REMARK    2  A    between atoms: SAN_2  and  CAM_5 
REMARK    3  A    between atoms: SAN_2  and  OAP_4 
REMARK    4  A    between atoms: SAN_2  and  OAO_3 
REMARK    5  A    between atoms: CAM_5  and  CAL_6 
REMARK    6  A    between atoms: CAL_6  and  SAK_7 
REMARK    7  A    between atoms: SAK_7  and  CAB_8 
REMARK    8  A    between atoms: CAD_10  and  OAI_11 
ROOT
ATOM      1  CAB 3M8 A 601      19.959  -9.302  -2.496  1.00  0.00     0.027 A 
ATOM      2  CAC 3M8 A 601      20.066 -10.536  -3.181  1.00  0.00     0.056 A 
ATOM      3  CAD 3M8 A 601      19.309 -11.641  -2.814  1.00  0.00     0.070 A 
ATOM      4  CAE 3M8 A 601      18.404 -11.673  -1.744  1.00  0.00     0.080 A 
ATOM      5  CAF 3M8 A 601      18.390 -10.450  -1.017  1.00  0.00     0.141 A 
ATOM      6  FAH 3M8 A 601      17.519 -10.351  -0.003  1.00  0.00    -0.204 F 
ATOM      7  CAA 3M8 A 601      19.104  -9.299  -1.382  1.00  0.00     0.100 A 
ATOM      8  CAG 3M8 A 601      18.982  -8.190  -0.642  1.00  0.00     0.104 C 
ATOM      9  NAJ 3M8 A 601      18.870  -7.249  -0.018  1.00  0.00    -0.191 NA
ENDROOT
BRANCH   1  10
ATOM     10  SAK 3M8 A 601      20.738  -7.843  -2.987  1.00  0.00    -0.127 SA
BRANCH  10  11
ATOM     11  CAL 3M8 A 601      20.103  -7.865  -4.641  1.00  0.00     0.094 C 
BRANCH  11  12
ATOM     12  CAM 3M8 A 601      18.737  -7.158  -4.825  1.00  0.00     0.147 C 
BRANCH  12  13
ATOM     13  SAN 3M8 A 601      18.666  -6.551  -6.381  1.00  0.00     0.081 S 
BRANCH  13  14
ATOM     14  OAQ 3M8 A 601      17.500  -7.129  -7.025  1.00  0.00    -0.308 OA
ATOM     15  H   3M8 A 601      17.740  -7.980  -7.424  1.00  0.00     0.230 HD
ENDBRANCH  13  14
BRANCH  13  16
ATOM     16  OAP 3M8 A 601      19.905  -6.988  -7.091  1.00  0.00    -0.308 OA
ATOM     17  H   3M8 A 601      20.054  -7.934  -6.931  1.00  0.00     0.230 HD
ENDBRANCH  13  16
BRANCH  13  18
ATOM     18  OAO 3M8 A 601      18.511  -5.107  -6.370  1.00  0.00    -0.308 OA
ATOM     19  H   3M8 A 601      19.374  -4.687  -6.511  1.00  0.00     0.230 HD
ENDBRANCH  13  18
ENDBRANCH  12  13
ENDBRANCH  11  12
ENDBRANCH  10  11
ENDBRANCH   1  10
BRANCH   3  20
ATOM     20  OAI 3M8 A 601      19.343 -12.750  -3.587  1.00  0.00    -0.361 OA
ATOM     21  H   3M8 A 601      19.978 -13.418  -3.418  1.00  0.00     0.217 HD
ENDBRANCH   3  20
TORSDOF 8
ENDMDL
MODEL 18
REMARK VINA RESULT:    -3.399      2.135      2.348
REMARK INTER + INTRA:          -4.965
REMARK INTER:                  -4.447
REMARK INTRA:                  -0.518
REMARK UNBOUND:                -0.374
REMARK  8 active torsions:
REMARK  status: ('A' for Active; 'I' for Inactive)
REMARK    1  A    between atoms: OAQ_1  and  SAN_2 
REMARK    2  A    between atoms: SAN_2  and  CAM_5 
REMARK    3  A    between atoms: SAN_2  and  OAP_4 
REMARK    4  A    between atoms: SAN_2  and  OAO_3 
REMARK    5  A    between atoms: CAM_5  and  CAL_6 
REMARK    6  A    between atoms: CAL_6  and  SAK_7 
REMARK    7  A    between atoms: SAK_7  and  CAB_8 
REMARK    8  A    between atoms: CAD_10  and  OAI_11 
ROOT
ATOM      1  CAB 3M8 A 601      18.986  -8.787  -3.288  1.00  0.00     0.027 A 
ATOM      2  CAC 3M8 A 601      18.944  -8.994  -4.688  1.00  0.00     0.056 A 
ATOM      3  CAD 3M8 A 601      18.589  -7.976  -5.565  1.00  0.00     0.070 A 
ATOM      4  CAE 3M8 A 601      18.214  -6.682  -5.180  1.00  0.00     0.080 A 
ATOM      5  CAF 3M8 A 601      18.172  -6.533  -3.766  1.00  0.00     0.141 A 
ATOM      6  FAH 3M8 A 601      17.878  -5.317  -3.286  1.00  0.00    -0.204 F 
ATOM      7  CAA 3M8 A 601      18.568  -7.519  -2.850  1.00  0.00     0.100 A 
ATOM      8  CAG 3M8 A 601      18.523  -7.252  -1.539  1.00  0.00     0.104 C 
ATOM      9  NAJ 3M8 A 601      18.492  -7.019  -0.429  1.00  0.00    -0.191 NA
ENDROOT
BRANCH   1  10
ATOM     10  SAK 3M8 A 601      19.571  -9.941  -2.148  1.00  0.00    -0.127 SA
BRANCH  10  11
ATOM     11  CAL 3M8 A 601      18.397 -11.200  -2.570  1.00  0.00     0.094 C 
BRANCH  11  12
ATOM     12  CAM 3M8 A 601      16.918 -10.830  -2.295  1.00  0.00     0.147 C 
BRANCH  12  13
ATOM     13  SAN 3M8 A 601      16.674 -10.842  -0.640  1.00  0.00     0.081 S 
BRANCH  13  14
ATOM     14  OAQ 3M8 A 601      15.275 -11.153  -0.405  1.00  0.00    -0.308 OA
ATOM     15  H   3M8 A 601      14.849 -10.406   0.042  1.00  0.00     0.230 HD
ENDBRANCH  13  14
BRANCH  13  16
ATOM     16  OAP 3M8 A 601      16.980  -9.472  -0.131  1.00  0.00    -0.308 OA
ATOM     17  H   3M8 A 601      16.328  -8.843  -0.480  1.00  0.00     0.230 HD
ENDBRANCH  13  16
BRANCH  13  18
ATOM     18  OAO 3M8 A 601      17.482 -11.867  -0.002  1.00  0.00    -0.308 OA
ATOM     19  H   3M8 A 601      17.486 -12.666  -0.553  1.00  0.00     0.230 HD
ENDBRANCH  13  18
ENDBRANCH  12  13
ENDBRANCH  11  12
ENDBRANCH  10  11
ENDBRANCH   1  10
BRANCH   3  20
ATOM     20  OAI 3M8 A 601      18.702  -8.184  -6.896  1.00  0.00    -0.361 OA
ATOM     21  H   3M8 A 601      19.546  -8.170  -7.301  1.00  0.00     0.217 HD
ENDBRANCH   3  20
TORSDOF 8
ENDMDL
MODEL 19
REMARK VINA RESULT:    -3.393      3.614      4.491
REMARK INTER + INTRA:          -4.957
REMARK INTER:                  -4.151
REMARK INTRA:                  -0.806
REMARK UNBOUND:                -0.374
REMARK  8 active torsions:
REMARK  status: ('A' for Active; 'I' for Inactive)
REMARK    1  A    between atoms: OAQ_1  and  SAN_2 
REMARK    2  A    between atoms: SAN_2  and  CAM_5 
REMARK    3  A    between atoms: SAN_2  and  OAP_4 
REMARK    4  A    between atoms: SAN_2  and  OAO_3 
REMARK    5  A    between atoms: CAM_5  and  CAL_6 
REMARK    6  A    between atoms: CAL_6  and  SAK_7 
REMARK    7  A    between atoms: SAK_7  and  CAB_8 
REMARK    8  A    between atoms: CAD_10  and  OAI_11 
ROOT
ATOM      1  CAB 3M8 A 601      18.545  -8.632  -4.720  1.00  0.00     0.027 A 
ATOM      2  CAC 3M8 A 601      18.888  -7.665  -5.697  1.00  0.00     0.056 A 
ATOM      3  CAD 3M8 A 601      17.921  -6.896  -6.332  1.00  0.00     0.070 A 
ATOM      4  CAE 3M8 A 601      16.542  -7.002  -6.111  1.00  0.00     0.080 A 
ATOM      5  CAF 3M8 A 601      16.222  -8.045  -5.198  1.00  0.00     0.141 A 
ATOM      6  FAH 3M8 A 601      14.932  -8.201  -4.872  1.00  0.00    -0.204 F 
ATOM      7  CAA 3M8 A 601      17.170  -8.811  -4.502  1.00  0.00     0.100 A 
ATOM      8  CAG 3M8 A 601      16.752  -9.742  -3.635  1.00  0.00     0.104 C 
ATOM      9  NAJ 3M8 A 601      16.394 -10.524  -2.894  1.00  0.00    -0.191 NA
ENDROOT
BRANCH   1  10
ATOM     10  SAK 3M8 A 601      19.689  -9.508  -3.772  1.00  0.00    -0.127 SA
BRANCH  10  11
ATOM     11  CAL 3M8 A 601      20.295  -8.092  -2.894  1.00  0.00     0.094 C 
BRANCH  11  12
ATOM     12  CAM 3M8 A 601      20.027  -8.107  -1.369  1.00  0.00     0.147 C 
BRANCH  12  13
ATOM     13  SAN 3M8 A 601      18.798  -7.022  -1.042  1.00  0.00     0.081 S 
BRANCH  13  14
ATOM     14  OAQ 3M8 A 601      17.658  -7.781  -0.560  1.00  0.00    -0.308 OA
ATOM     15  H   3M8 A 601      17.418  -7.475   0.328  1.00  0.00     0.230 HD
ENDBRANCH  13  14
BRANCH  13  16
ATOM     16  OAP 3M8 A 601      18.447  -6.341  -2.324  1.00  0.00    -0.308 OA
ATOM     17  H   3M8 A 601      19.119  -6.546  -2.994  1.00  0.00     0.230 HD
ENDBRANCH  13  16
BRANCH  13  18
ATOM     18  OAO 3M8 A 601      19.193  -6.085  -0.004  1.00  0.00    -0.308 OA
ATOM     19  H   3M8 A 601      19.517  -5.267  -0.412  1.00  0.00     0.230 HD
ENDBRANCH  13  18
ENDBRANCH  12  13
ENDBRANCH  11  12
ENDBRANCH  10  11
ENDBRANCH   1  10
BRANCH   3  20
ATOM     20  OAI 3M8 A 601      18.309  -5.893  -7.149  1.00  0.00    -0.361 OA
ATOM     21  H   3M8 A 601      19.035  -5.350  -6.912  1.00  0.00     0.217 HD
ENDBRANCH   3  20
TORSDOF 8
ENDMDL
MODEL 20
REMARK VINA RESULT:    -3.384      3.677      5.371
REMARK INTER + INTRA:          -4.945
REMARK INTER:                  -4.030
REMARK INTRA:                  -0.916
REMARK UNBOUND:                -0.374
REMARK  8 active torsions:
REMARK  status: ('A' for Active; 'I' for Inactive)
REMARK    1  A    between atoms: OAQ_1  and  SAN_2 
REMARK    2  A    between atoms: SAN_2  and  CAM_5 
REMARK    3  A    between atoms: SAN_2  and  OAP_4 
REMARK    4  A    between atoms: SAN_2  and  OAO_3 
REMARK    5  A    between atoms: CAM_5  and  CAL_6 
REMARK    6  A    between atoms: CAL_6  and  SAK_7 
REMARK    7  A    between atoms: SAK_7  and  CAB_8 
REMARK    8  A    between atoms: CAD_10  and  OAI_11 
ROOT
ATOM      1  CAB 3M8 A 601      18.587  -9.382  -3.629  1.00  0.00     0.027 A 
ATOM      2  CAC 3M8 A 601      18.763 -10.623  -2.970  1.00  0.00     0.056 A 
ATOM      3  CAD 3M8 A 601      17.753 -11.576  -2.930  1.00  0.00     0.070 A 
ATOM      4  CAE 3M8 A 601      16.479 -11.417  -3.490  1.00  0.00     0.080 A 
ATOM      5  CAF 3M8 A 601      16.300 -10.126  -4.060  1.00  0.00     0.141 A 
ATOM      6  FAH 3M8 A 601      15.133  -9.882  -4.673  1.00  0.00    -0.204 F 
ATOM      7  CAA 3M8 A 601      17.308  -9.155  -4.161  1.00  0.00     0.100 A 
ATOM      8  CAG 3M8 A 601      17.035  -7.986  -4.755  1.00  0.00     0.104 C 
ATOM      9  NAJ 3M8 A 601      16.802  -7.000  -5.266  1.00  0.00    -0.191 NA
ENDROOT
BRANCH   1  10
ATOM     10  SAK 3M8 A 601      19.838  -8.218  -3.865  1.00  0.00    -0.127 SA
BRANCH  10  11
ATOM     11  CAL 3M8 A 601      19.867  -7.663  -2.182  1.00  0.00     0.094 C 
BRANCH  11  12
ATOM     12  CAM 3M8 A 601      19.869  -6.124  -2.003  1.00  0.00     0.147 C 
BRANCH  12  13
ATOM     13  SAN 3M8 A 601      18.283  -5.610  -1.876  1.00  0.00     0.081 S 
BRANCH  13  14
ATOM     14  OAQ 3M8 A 601      18.273  -4.415  -1.051  1.00  0.00    -0.308 OA
ATOM     15  H   3M8 A 601      19.171  -4.236  -0.732  1.00  0.00     0.230 HD
ENDBRANCH  13  14
BRANCH  13  16
ATOM     16  OAP 3M8 A 601      17.510  -6.696  -1.203  1.00  0.00    -0.308 OA
ATOM     17  H   3M8 A 601      17.424  -6.494  -0.258  1.00  0.00     0.230 HD
ENDBRANCH  13  16
BRANCH  13  18
ATOM     18  OAO 3M8 A 601      17.741  -5.267  -3.180  1.00  0.00    -0.308 OA
ATOM     19  H   3M8 A 601      16.939  -5.787  -3.344  1.00  0.00     0.230 HD
ENDBRANCH  13  18
ENDBRANCH  12  13
ENDBRANCH  11  12
ENDBRANCH  10  11
ENDBRANCH   1  10
BRANCH   3  20
ATOM     20  OAI 3M8 A 601      18.019 -12.797  -2.413  1.00  0.00    -0.361 OA
ATOM     21  H   3M8 A 601      18.881 -13.157  -2.483  1.00  0.00     0.217 HD
ENDBRANCH   3  20
TORSDOF 8
ENDMDL
MODEL 21
REMARK VINA RESULT:    -3.376      2.525      3.186
REMARK INTER + INTRA:          -4.934
REMARK INTER:                  -4.630
REMARK INTRA:                  -0.303
REMARK UNBOUND:                -0.374
REMARK  8 active torsions:
REMARK  status: ('A' for Active; 'I' for Inactive)
REMARK    1  A    between atoms: OAQ_1  and  SAN_2 
REMARK    2  A    between atoms: SAN_2  and  CAM_5 
REMARK    3  A    between atoms: SAN_2  and  OAP_4 
REMARK    4  A    between atoms: SAN_2  and  OAO_3 
REMARK    5  A    between atoms: CAM_5  and  CAL_6 
REMARK    6  A    between atoms: CAL_6  and  SAK_7 
REMARK    7  A    between atoms: SAK_7  and  CAB_8 
REMARK    8  A    between atoms: CAD_10  and  OAI_11 
ROOT
ATOM      1  CAB 3M8 A 601      18.449  -9.274  -3.159  1.00  0.00     0.027 A 
ATOM      2  CAC 3M8 A 601      19.212 -10.394  -3.572  1.00  0.00     0.056 A 
ATOM      3  CAD 3M8 A 601      20.230 -10.913  -2.781  1.00  0.00     0.070 A 
ATOM      4  CAE 3M8 A 601      20.626 -10.393  -1.542  1.00  0.00     0.080 A 
ATOM      5  CAF 3M8 A 601      19.907  -9.214  -1.199  1.00  0.00     0.141 A 
ATOM      6  FAH 3M8 A 601      20.169  -8.661  -0.007  1.00  0.00    -0.204 F 
ATOM      7  CAA 3M8 A 601      18.844  -8.686  -1.946  1.00  0.00     0.100 A 
ATOM      8  CAG 3M8 A 601      18.213  -7.590  -1.505  1.00  0.00     0.104 C 
ATOM      9  NAJ 3M8 A 601      17.675  -6.667  -1.124  1.00  0.00    -0.191 NA
ENDROOT
BRANCH   1  10
ATOM     10  SAK 3M8 A 601      17.069  -8.672  -4.000  1.00  0.00    -0.127 SA
BRANCH  10  11
ATOM     11  CAL 3M8 A 601      16.282 -10.249  -4.177  1.00  0.00     0.094 C 
BRANCH  11  12
ATOM     12  CAM 3M8 A 601      15.482 -10.722  -2.938  1.00  0.00     0.147 C 
BRANCH  12  13
ATOM     13  SAN 3M8 A 601      13.914 -11.049  -3.419  1.00  0.00     0.081 S 
BRANCH  13  14
ATOM     14  OAQ 3M8 A 601      13.930 -12.307  -4.143  1.00  0.00    -0.308 OA
ATOM     15  H   3M8 A 601      13.141 -12.368  -4.703  1.00  0.00     0.230 HD
ENDBRANCH  13  14
BRANCH  13  16
ATOM     16  OAP 3M8 A 601      13.484  -9.946  -4.330  1.00  0.00    -0.308 OA
ATOM     17  H   3M8 A 601      12.521  -9.844  -4.284  1.00  0.00     0.230 HD
ENDBRANCH  13  16
BRANCH  13  18
ATOM     18  OAO 3M8 A 601      13.037 -11.195  -2.270  1.00  0.00    -0.308 OA
ATOM     19  H   3M8 A 601      12.628 -12.075  -2.285  1.00  0.00     0.230 HD
ENDBRANCH  13  18
ENDBRANCH  12  13
ENDBRANCH  11  12
ENDBRANCH  10  11
ENDBRANCH   1  10
BRANCH   3  20
ATOM     20  OAI 3M8 A 601      20.832 -12.064  -3.154  1.00  0.00    -0.361 OA
ATOM     21  H   3M8 A 601      20.321 -12.768  -3.503  1.00  0.00     0.217 HD
ENDBRANCH   3  20
TORSDOF 8
ENDMDL
MODEL 22
REMARK VINA RESULT:    -3.370      1.780      2.081
REMARK INTER + INTRA:          -4.926
REMARK INTER:                  -4.997
REMARK INTRA:                   0.071
REMARK UNBOUND:                -0.374
REMARK  8 active torsions:
REMARK  status: ('A' for Active; 'I' for Inactive)
REMARK    1  A    between atoms: OAQ_1  and  SAN_2 
REMARK    2  A    between atoms: SAN_2  and  CAM_5 
REMARK    3  A    between atoms: SAN_2  and  OAP_4 
REMARK    4  A    between atoms: SAN_2  and  OAO_3 
REMARK    5  A    between atoms: CAM_5  and  CAL_6 
REMARK    6  A    between atoms: CAL_6  and  SAK_7 
REMARK    7  A    between atoms: SAK_7  and  CAB_8 
REMARK    8  A    between atoms: CAD_10  and  OAI_11 
ROOT
ATOM      1  CAB 3M8 A 601      17.060  -7.597  -4.963  1.00  0.00     0.027 A 
ATOM      2  CAC 3M8 A 601      16.910  -6.842  -6.152  1.00  0.00     0.056 A 
ATOM      3  CAD 3M8 A 601      17.433  -5.561  -6.271  1.00  0.00     0.070 A 
ATOM      4  CAE 3M8 A 601      18.120  -4.878  -5.258  1.00  0.00     0.080 A 
ATOM      5  CAF 3M8 A 601      18.170  -5.623  -4.047  1.00  0.00     0.141 A 
ATOM      6  FAH 3M8 A 601      18.851  -5.086  -3.025  1.00  0.00    -0.204 F 
ATOM      7  CAA 3M8 A 601      17.696  -6.935  -3.900  1.00  0.00     0.100 A 
ATOM      8  CAG 3M8 A 601      17.833  -7.554  -2.721  1.00  0.00     0.104 C 
ATOM      9  NAJ 3M8 A 601      17.959  -8.078  -1.722  1.00  0.00    -0.191 NA
ENDROOT
BRANCH   1  10
ATOM     10  SAK 3M8 A 601      16.586  -9.247  -4.790  1.00  0.00    -0.127 SA
BRANCH  10  11
ATOM     11  CAL 3M8 A 601      14.859  -8.903  -4.594  1.00  0.00     0.094 C 
BRANCH  11  12
ATOM     12  CAM 3M8 A 601      13.932 -10.139  -4.708  1.00  0.00     0.147 C 
BRANCH  12  13
ATOM     13  SAN 3M8 A 601      14.065 -11.026  -3.296  1.00  0.00     0.081 S 
BRANCH  13  14
ATOM     14  OAQ 3M8 A 601      12.841 -10.833  -2.539  1.00  0.00    -0.308 OA
ATOM     15  H   3M8 A 601      12.474  -9.958  -2.736  1.00  0.00     0.230 HD
ENDBRANCH  13  14
BRANCH  13  16
ATOM     16  OAP 3M8 A 601      15.226 -10.479  -2.530  1.00  0.00    -0.308 OA
ATOM     17  H   3M8 A 601      15.109 -10.670  -1.586  1.00  0.00     0.230 HD
ENDBRANCH  13  16
BRANCH  13  18
ATOM     18  OAO 3M8 A 601      14.205 -12.443  -3.583  1.00  0.00    -0.308 OA
ATOM     19  H   3M8 A 601      13.736 -12.958  -2.907  1.00  0.00     0.230 HD
ENDBRANCH  13  18
ENDBRANCH  12  13
ENDBRANCH  11  12
ENDBRANCH  10  11
ENDBRANCH   1  10
BRANCH   3  20
ATOM     20  OAI 3M8 A 601      17.387  -4.939  -7.470  1.00  0.00    -0.361 OA
ATOM     21  H   3M8 A 601      16.747  -4.273  -7.628  1.00  0.00     0.217 HD
ENDBRANCH   3  20
TORSDOF 8
ENDMDL
MODEL 23
REMARK VINA RESULT:    -3.325      3.721      5.200
REMARK INTER + INTRA:          -4.865
REMARK INTER:                  -4.231
REMARK INTRA:                  -0.634
REMARK UNBOUND:                -0.374
REMARK  8 active torsions:
REMARK  status: ('A' for Active; 'I' for Inactive)
REMARK    1  A    between atoms: OAQ_1  and  SAN_2 
REMARK    2  A    between atoms: SAN_2  and  CAM_5 
REMARK    3  A    between atoms: SAN_2  and  OAP_4 
REMARK    4  A    between atoms: SAN_2  and  OAO_3 
REMARK    5  A    between atoms: CAM_5  and  CAL_6 
REMARK    6  A    between atoms: CAL_6  and  SAK_7 
REMARK    7  A    between atoms: SAK_7  and  CAB_8 
REMARK    8  A    between atoms: CAD_10  and  OAI_11 
ROOT
ATOM      1  CAB 3M8 A 601      17.930  -9.737  -3.996  1.00  0.00     0.027 A 
ATOM      2  CAC 3M8 A 601      16.545  -9.626  -4.271  1.00  0.00     0.056 A 
ATOM      3  CAD 3M8 A 601      15.615 -10.470  -3.678  1.00  0.00     0.070 A 
ATOM      4  CAE 3M8 A 601      15.927 -11.510  -2.793  1.00  0.00     0.080 A 
ATOM      5  CAF 3M8 A 601      17.330 -11.658  -2.611  1.00  0.00     0.141 A 
ATOM      6  FAH 3M8 A 601      17.740 -12.591  -1.741  1.00  0.00    -0.204 F 
ATOM      7  CAA 3M8 A 601      18.297 -10.800  -3.154  1.00  0.00     0.100 A 
ATOM      8  CAG 3M8 A 601      19.591 -11.013  -2.883  1.00  0.00     0.104 C 
ATOM      9  NAJ 3M8 A 601      20.685 -11.193  -2.643  1.00  0.00    -0.191 NA
ENDROOT
BRANCH   1  10
ATOM     10  SAK 3M8 A 601      19.128  -8.631  -4.559  1.00  0.00    -0.127 SA
BRANCH  10  11
ATOM     11  CAL 3M8 A 601      18.429  -7.210  -3.762  1.00  0.00     0.094 C 
BRANCH  11  12
ATOM     12  CAM 3M8 A 601      19.273  -6.636  -2.597  1.00  0.00     0.147 C 
BRANCH  12  13
ATOM     13  SAN 3M8 A 601      18.370  -6.742  -1.194  1.00  0.00     0.081 S 
BRANCH  13  14
ATOM     14  OAQ 3M8 A 601      17.481  -5.595  -1.156  1.00  0.00    -0.308 OA
ATOM     15  H   3M8 A 601      17.872  -4.866  -1.663  1.00  0.00     0.230 HD
ENDBRANCH  13  14
BRANCH  13  16
ATOM     16  OAP 3M8 A 601      19.321  -6.684  -0.043  1.00  0.00    -0.308 OA
ATOM     17  H   3M8 A 601      19.752  -5.815  -0.022  1.00  0.00     0.230 HD
ENDBRANCH  13  16
BRANCH  13  18
ATOM     18  OAO 3M8 A 601      17.560  -7.947  -1.186  1.00  0.00    -0.308 OA
ATOM     19  H   3M8 A 601      17.229  -8.109  -0.288  1.00  0.00     0.230 HD
ENDBRANCH  13  18
ENDBRANCH  12  13
ENDBRANCH  11  12
ENDBRANCH  10  11
ENDBRANCH   1  10
BRANCH   3  20
ATOM     20  OAI 3M8 A 601      14.297 -10.232  -3.863  1.00  0.00    -0.361 OA
ATOM     21  H   3M8 A 601      13.671 -10.909  -3.695  1.00  0.00     0.217 HD
ENDBRANCH   3  20
TORSDOF 8
ENDMDL
MODEL 24
REMARK VINA RESULT:    -3.311      2.786      3.247
REMARK INTER + INTRA:          -4.846
REMARK INTER:                  -4.487
REMARK INTRA:                  -0.359
REMARK UNBOUND:                -0.374
REMARK  8 active torsions:
REMARK  status: ('A' for Active; 'I' for Inactive)
REMARK    1  A    between atoms: OAQ_1  and  SAN_2 
REMARK    2  A    between atoms: SAN_2  and  CAM_5 
REMARK    3  A    between atoms: SAN_2  and  OAP_4 
REMARK    4  A    between atoms: SAN_2  and  OAO_3 
REMARK    5  A    between atoms: CAM_5  and  CAL_6 
REMARK    6  A    between atoms: CAL_6  and  SAK_7 
REMARK    7  A    between atoms: SAK_7  and  CAB_8 
REMARK    8  A    between atoms: CAD_10  and  OAI_11 
ROOT
ATOM      1  CAB 3M8 A 601      19.290  -7.220  -3.300  1.00  0.00     0.027 A 
ATOM      2  CAC 3M8 A 601      19.387  -7.766  -4.604  1.00  0.00     0.056 A 
ATOM      3  CAD 3M8 A 601      18.954  -7.063  -5.721  1.00  0.00     0.070 A 
ATOM      4  CAE 3M8 A 601      18.365  -5.792  -5.690  1.00  0.00     0.080 A 
ATOM      5  CAF 3M8 A 601      18.194  -5.311  -4.362  1.00  0.00     0.141 A 
ATOM      6  FAH 3M8 A 601      17.688  -4.079  -4.216  1.00  0.00    -0.204 F 
ATOM      7  CAA 3M8 A 601      18.659  -5.968  -3.213  1.00  0.00     0.100 A 
ATOM      8  CAG 3M8 A 601      18.475  -5.401  -2.014  1.00  0.00     0.104 C 
ATOM      9  NAJ 3M8 A 601      18.326  -4.913  -1.000  1.00  0.00    -0.191 NA
ENDROOT
BRANCH   1  10
ATOM     10  SAK 3M8 A 601      19.950  -7.952  -1.885  1.00  0.00    -0.127 SA
BRANCH  10  11
ATOM     11  CAL 3M8 A 601      18.827  -9.324  -1.870  1.00  0.00     0.094 C 
BRANCH  11  12
ATOM     12  CAM 3M8 A 601      19.490 -10.710  -2.072  1.00  0.00     0.147 C 
BRANCH  12  13
ATOM     13  SAN 3M8 A 601      18.427 -11.680  -2.925  1.00  0.00     0.081 S 
BRANCH  13  14
ATOM     14  OAQ 3M8 A 601      19.190 -12.784  -3.480  1.00  0.00    -0.308 OA
ATOM     15  H   3M8 A 601      18.595 -13.372  -3.971  1.00  0.00     0.230 HD
ENDBRANCH  13  14
BRANCH  13  16
ATOM     16  OAP 3M8 A 601      17.854 -10.854  -4.030  1.00  0.00    -0.308 OA
ATOM     17  H   3M8 A 601      18.568 -10.377  -4.481  1.00  0.00     0.230 HD
ENDBRANCH  13  16
BRANCH  13  18
ATOM     18  OAO 3M8 A 601      17.405 -12.227  -2.050  1.00  0.00    -0.308 OA
ATOM     19  H   3M8 A 601      17.376 -13.191  -2.149  1.00  0.00     0.230 HD
ENDBRANCH  13  18
ENDBRANCH  12  13
ENDBRANCH  11  12
ENDBRANCH  10  11
ENDBRANCH   1  10
BRANCH   3  20
ATOM     20  OAI 3M8 A 601      19.197  -7.567  -6.951  1.00  0.00    -0.361 OA
ATOM     21  H   3M8 A 601      18.584  -8.156  -7.345  1.00  0.00     0.217 HD
ENDBRANCH   3  20
TORSDOF 8
ENDMDL
MODEL 25
REMARK VINA RESULT:    -3.083      2.569      3.096
REMARK INTER + INTRA:          -4.538
REMARK INTER:                  -4.423
REMARK INTRA:                  -0.114
REMARK UNBOUND:                -0.374
REMARK  8 active torsions:
REMARK  status: ('A' for Active; 'I' for Inactive)
REMARK    1  A    between atoms: OAQ_1  and  SAN_2 
REMARK    2  A    between atoms: SAN_2  and  CAM_5 
REMARK    3  A    between atoms: SAN_2  and  OAP_4 
REMARK    4  A    between atoms: SAN_2  and  OAO_3 
REMARK    5  A    between atoms: CAM_5  and  CAL_6 
REMARK    6  A    between atoms: CAL_6  and  SAK_7 
REMARK    7  A    between atoms: SAK_7  and  CAB_8 
REMARK    8  A    between atoms: CAD_10  and  OAI_11 
ROOT
ATOM      1  CAB 3M8 A 601      18.222  -8.094  -3.510  1.00  0.00     0.027 A 
ATOM      2  CAC 3M8 A 601      18.501  -8.036  -2.123  1.00  0.00     0.056 A 
ATOM      3  CAD 3M8 A 601      18.687  -6.825  -1.468  1.00  0.00     0.070 A 
ATOM      4  CAE 3M8 A 601      18.651  -5.567  -2.084  1.00  0.00     0.080 A 
ATOM      5  CAF 3M8 A 601      18.464  -5.662  -3.491  1.00  0.00     0.141 A 
ATOM      6  FAH 3M8 A 601      18.359  -4.515  -4.175  1.00  0.00    -0.204 F 
ATOM      7  CAA 3M8 A 601      18.226  -6.860  -4.182  1.00  0.00     0.100 A 
ATOM      8  CAG 3M8 A 601      18.025  -6.825  -5.505  1.00  0.00     0.104 C 
ATOM      9  NAJ 3M8 A 601      17.845  -6.790  -6.625  1.00  0.00    -0.191 NA
ENDROOT
BRANCH   1  10
ATOM     10  SAK 3M8 A 601      17.817  -9.537  -4.364  1.00  0.00    -0.127 SA
BRANCH  10  11
ATOM     11  CAL 3M8 A 601      16.084  -9.463  -4.002  1.00  0.00     0.094 C 
BRANCH  11  12
ATOM     12  CAM 3M8 A 601      15.497 -10.744  -3.360  1.00  0.00     0.147 C 
BRANCH  12  13
ATOM     13  SAN 3M8 A 601      13.912 -10.907  -3.868  1.00  0.00     0.081 S 
BRANCH  13  14
ATOM     14  OAQ 3M8 A 601      13.564  -9.709  -4.611  1.00  0.00    -0.308 OA
ATOM     15  H   3M8 A 601      12.602  -9.669  -4.728  1.00  0.00     0.230 HD
ENDBRANCH  13  14
BRANCH  13  16
ATOM     16  OAP 3M8 A 601      13.057 -11.011  -2.647  1.00  0.00    -0.308 OA
ATOM     17  H   3M8 A 601      13.622 -11.045  -1.858  1.00  0.00     0.230 HD
ENDBRANCH  13  16
BRANCH  13  18
ATOM     18  OAO 3M8 A 601      13.763 -12.050  -4.751  1.00  0.00    -0.308 OA
ATOM     19  H   3M8 A 601      12.864 -12.062  -5.116  1.00  0.00     0.230 HD
ENDBRANCH  13  18
ENDBRANCH  12  13
ENDBRANCH  11  12
ENDBRANCH  10  11
ENDBRANCH   1  10
BRANCH   3  20
ATOM     20  OAI 3M8 A 601      18.811  -6.816  -0.122  1.00  0.00    -0.361 OA
ATOM     21  H   3M8 A 601      18.073  -7.027   0.417  1.00  0.00     0.217 HD
ENDBRANCH   3  20
TORSDOF 8
ENDMDL
MODEL 26
REMARK VINA RESULT:    -3.078      3.143      3.654
REMARK INTER + INTRA:          -4.531
REMARK INTER:                  -3.801
REMARK INTRA:                  -0.729
REMARK UNBOUND:                -0.374
REMARK  8 active torsions:
REMARK  status: ('A' for Active; 'I' for Inactive)
REMARK    1  A    between atoms: OAQ_1  and  SAN_2 
REMARK    2  A    between atoms: SAN_2  and  CAM_5 
REMARK    3  A    between atoms: SAN_2  and  OAP_4 
REMARK    4  A    between atoms: SAN_2  and  OAO_3 
REMARK    5  A    between atoms: CAM_5  and  CAL_6 
REMARK    6  A    between atoms: CAL_6  and  SAK_7 
REMARK    7  A    between atoms: SAK_7  and  CAB_8 
REMARK    8  A    between atoms: CAD_10  and  OAI_11 
ROOT
ATOM      1  CAB 3M8 A 601      19.638  -6.649  -3.543  1.00  0.00     0.027 A 
ATOM      2  CAC 3M8 A 601      19.865  -7.165  -4.842  1.00  0.00     0.056 A 
ATOM      3  CAD 3M8 A 601      19.298  -6.581  -5.968  1.00  0.00     0.070 A 
ATOM      4  CAE 3M8 A 601      18.443  -5.471  -5.949  1.00  0.00     0.080 A 
ATOM      5  CAF 3M8 A 601      18.158  -5.034  -4.626  1.00  0.00     0.141 A 
ATOM      6  FAH 3M8 A 601      17.391  -3.943  -4.492  1.00  0.00    -0.204 F 
ATOM      7  CAA 3M8 A 601      18.746  -5.567  -3.469  1.00  0.00     0.100 A 
ATOM      8  CAG 3M8 A 601      18.431  -5.049  -2.275  1.00  0.00     0.104 C 
ATOM      9  NAJ 3M8 A 601      18.168  -4.601  -1.266  1.00  0.00    -0.191 NA
ENDROOT
BRANCH   1  10
ATOM     10  SAK 3M8 A 601      20.431  -7.211  -2.118  1.00  0.00    -0.127 SA
BRANCH  10  11
ATOM     11  CAL 3M8 A 601      19.867  -8.885  -2.266  1.00  0.00     0.094 C 
BRANCH  11  12
ATOM     12  CAM 3M8 A 601      19.158  -9.447  -1.008  1.00  0.00     0.147 C 
BRANCH  12  13
ATOM     13  SAN 3M8 A 601      17.574  -8.911  -1.016  1.00  0.00     0.081 S 
BRANCH  13  14
ATOM     14  OAQ 3M8 A 601      16.741  -9.995  -0.525  1.00  0.00    -0.308 OA
ATOM     15  H   3M8 A 601      15.996 -10.129  -1.131  1.00  0.00     0.230 HD
ENDBRANCH  13  14
BRANCH  13  16
ATOM     16  OAP 3M8 A 601      17.213  -8.597  -2.431  1.00  0.00    -0.308 OA
ATOM     17  H   3M8 A 601      16.304  -8.889  -2.606  1.00  0.00     0.230 HD
ENDBRANCH  13  16
BRANCH  13  18
ATOM     18  OAO 3M8 A 601      17.405  -7.771  -0.132  1.00  0.00    -0.308 OA
ATOM     19  H   3M8 A 601      17.974  -7.878   0.646  1.00  0.00     0.230 HD
ENDBRANCH  13  18
ENDBRANCH  12  13
ENDBRANCH  11  12
ENDBRANCH  10  11
ENDBRANCH   1  10
BRANCH   3  20
ATOM     20  OAI 3M8 A 601      19.658  -7.024  -7.193  1.00  0.00    -0.361 OA
ATOM     21  H   3M8 A 601      19.755  -7.943  -7.348  1.00  0.00     0.217 HD
ENDBRANCH   3  20
TORSDOF 8
ENDMDL
MODEL 27
REMARK VINA RESULT:    -3.064      3.645      4.396
REMARK INTER + INTRA:          -4.513
REMARK INTER:                  -4.281
REMARK INTRA:                  -0.232
REMARK UNBOUND:                -0.374
REMARK  8 active torsions:
REMARK  status: ('A' for Active; 'I' for Inactive)
REMARK    1  A    between atoms: OAQ_1  and  SAN_2 
REMARK    2  A    between atoms: SAN_2  and  CAM_5 
REMARK    3  A    between atoms: SAN_2  and  OAP_4 
REMARK    4  A    between atoms: SAN_2  and  OAO_3 
REMARK    5  A    between atoms: CAM_5  and  CAL_6 
REMARK    6  A    between atoms: CAL_6  and  SAK_7 
REMARK    7  A    between atoms: SAK_7  and  CAB_8 
REMARK    8  A    between atoms: CAD_10  and  OAI_11 
ROOT
ATOM      1  CAB 3M8 A 601      18.764  -7.135  -3.640  1.00  0.00     0.027 A 
ATOM      2  CAC 3M8 A 601      18.882  -6.763  -2.279  1.00  0.00     0.056 A 
ATOM      3  CAD 3M8 A 601      18.715  -5.447  -1.867  1.00  0.00     0.070 A 
ATOM      4  CAE 3M8 A 601      18.448  -4.368  -2.720  1.00  0.00     0.080 A 
ATOM      5  CAF 3M8 A 601      18.430  -4.756  -4.088  1.00  0.00     0.141 A 
ATOM      6  FAH 3M8 A 601      18.130  -3.811  -4.990  1.00  0.00    -0.204 F 
ATOM      7  CAA 3M8 A 601      18.549  -6.079  -4.541  1.00  0.00     0.100 A 
ATOM      8  CAG 3M8 A 601      18.478  -6.331  -5.854  1.00  0.00     0.104 C 
ATOM      9  NAJ 3M8 A 601      18.408  -6.542  -6.967  1.00  0.00    -0.191 NA
ENDROOT
BRANCH   1  10
ATOM     10  SAK 3M8 A 601      18.795  -8.762  -4.213  1.00  0.00    -0.127 SA
BRANCH  10  11
ATOM     11  CAL 3M8 A 601      17.959  -9.447  -2.808  1.00  0.00     0.094 C 
BRANCH  11  12
ATOM     12  CAM 3M8 A 601      17.472 -10.907  -2.988  1.00  0.00     0.147 C 
BRANCH  12  13
ATOM     13  SAN 3M8 A 601      18.666 -11.931  -2.421  1.00  0.00     0.081 S 
BRANCH  13  14
ATOM     14  OAQ 3M8 A 601      19.770 -11.107  -1.961  1.00  0.00    -0.308 OA
ATOM     15  H   3M8 A 601      20.106 -10.577  -2.700  1.00  0.00     0.230 HD
ENDBRANCH  13  14
BRANCH  13  16
ATOM     16  OAP 3M8 A 601      19.111 -12.780  -3.567  1.00  0.00    -0.308 OA
ATOM     17  H   3M8 A 601      20.062 -12.957  -3.488  1.00  0.00     0.230 HD
ENDBRANCH  13  16
BRANCH  13  18
ATOM     18  OAO 3M8 A 601      18.187 -12.718  -1.298  1.00  0.00    -0.308 OA
ATOM     19  H   3M8 A 601      18.012 -12.133  -0.544  1.00  0.00     0.230 HD
ENDBRANCH  13  18
ENDBRANCH  12  13
ENDBRANCH  11  12
ENDBRANCH  10  11
ENDBRANCH   1  10
BRANCH   3  20
ATOM     20  OAI 3M8 A 601      18.697  -5.168  -0.544  1.00  0.00    -0.361 OA
ATOM     21  H   3M8 A 601      17.922  -4.819  -0.150  1.00  0.00     0.217 HD
ENDBRANCH   3  20
TORSDOF 8
ENDMDL
MODEL 28
REMARK VINA RESULT:    -2.992      2.836      5.630
REMARK INTER + INTRA:          -4.415
REMARK INTER:                  -4.187
REMARK INTRA:                  -0.229
REMARK UNBOUND:                -0.374
REMARK  8 active torsions:
REMARK  status: ('A' for Active; 'I' for Inactive)
REMARK    1  A    between atoms: OAQ_1  and  SAN_2 
REMARK    2  A    between atoms: SAN_2  and  CAM_5 
REMARK    3  A    between atoms: SAN_2  and  OAP_4 
REMARK    4  A    between atoms: SAN_2  and  OAO_3 
REMARK    5  A    between atoms: CAM_5  and  CAL_6 
REMARK    6  A    between atoms: CAL_6  and  SAK_7 
REMARK    7  A    between atoms: SAK_7  and  CAB_8 
REMARK    8  A    between atoms: CAD_10  and  OAI_11 
ROOT
ATOM      1  CAB 3M8 A 601      17.757  -9.035  -3.049  1.00  0.00     0.027 A 
ATOM      2  CAC 3M8 A 601      17.298 -10.040  -3.936  1.00  0.00     0.056 A 
ATOM      3  CAD 3M8 A 601      16.971 -11.313  -3.487  1.00  0.00     0.070 A 
ATOM      4  CAE 3M8 A 601      17.080 -11.747  -2.159  1.00  0.00     0.080 A 
ATOM      5  CAF 3M8 A 601      17.633 -10.748  -1.311  1.00  0.00     0.141 A 
ATOM      6  FAH 3M8 A 601      17.732 -11.037  -0.006  1.00  0.00    -0.204 F 
ATOM      7  CAA 3M8 A 601      17.932  -9.438  -1.715  1.00  0.00     0.100 A 
ATOM      8  CAG 3M8 A 601      18.413  -8.568  -0.818  1.00  0.00     0.104 C 
ATOM      9  NAJ 3M8 A 601      18.813  -7.832  -0.053  1.00  0.00    -0.191 NA
ENDROOT
BRANCH   1  10
ATOM     10  SAK 3M8 A 601      18.027  -7.391  -3.495  1.00  0.00    -0.127 SA
BRANCH  10  11
ATOM     11  CAL 3M8 A 601      17.911  -7.672  -5.241  1.00  0.00     0.094 C 
BRANCH  11  12
ATOM     12  CAM 3M8 A 601      17.469  -6.440  -6.071  1.00  0.00     0.147 C 
BRANCH  12  13
ATOM     13  SAN 3M8 A 601      18.827  -5.773  -6.783  1.00  0.00     0.081 S 
BRANCH  13  14
ATOM     14  OAQ 3M8 A 601      18.403  -5.108  -8.002  1.00  0.00    -0.308 OA
ATOM     15  H   3M8 A 601      18.265  -5.769  -8.699  1.00  0.00     0.230 HD
ENDBRANCH  13  14
BRANCH  13  16
ATOM     16  OAP 3M8 A 601      19.757  -6.895  -7.115  1.00  0.00    -0.308 OA
ATOM     17  H   3M8 A 601      20.174  -7.221  -6.303  1.00  0.00     0.230 HD
ENDBRANCH  13  16
BRANCH  13  18
ATOM     18  OAO 3M8 A 601      19.438  -4.783  -5.913  1.00  0.00    -0.308 OA
ATOM     19  H   3M8 A 601      19.497  -3.935  -6.380  1.00  0.00     0.230 HD
ENDBRANCH  13  18
ENDBRANCH  12  13
ENDBRANCH  11  12
ENDBRANCH  10  11
ENDBRANCH   1  10
BRANCH   3  20
ATOM     20  OAI 3M8 A 601      16.405 -12.190  -4.346  1.00  0.00    -0.361 OA
ATOM     21  H   3M8 A 601      16.757 -13.054  -4.432  1.00  0.00     0.217 HD
ENDBRANCH   3  20
TORSDOF 8
ENDMDL
MODEL 29
REMARK VINA RESULT:    -2.980      2.971      5.505
REMARK INTER + INTRA:          -4.400
REMARK INTER:                  -3.992
REMARK INTRA:                  -0.407
REMARK UNBOUND:                -0.374
REMARK  8 active torsions:
REMARK  status: ('A' for Active; 'I' for Inactive)
REMARK    1  A    between atoms: OAQ_1  and  SAN_2 
REMARK    2  A    between atoms: SAN_2  and  CAM_5 
REMARK    3  A    between atoms: SAN_2  and  OAP_4 
REMARK    4  A    between atoms: SAN_2  and  OAO_3 
REMARK    5  A    between atoms: CAM_5  and  CAL_6 
REMARK    6  A    between atoms: CAL_6  and  SAK_7 
REMARK    7  A    between atoms: SAK_7  and  CAB_8 
REMARK    8  A    between atoms: CAD_10  and  OAI_11 
ROOT
ATOM      1  CAB 3M8 A 601      17.829  -9.540  -3.774  1.00  0.00     0.027 A 
ATOM      2  CAC 3M8 A 601      16.556  -9.552  -4.394  1.00  0.00     0.056 A 
ATOM      3  CAD 3M8 A 601      15.673 -10.610  -4.222  1.00  0.00     0.070 A 
ATOM      4  CAE 3M8 A 601      15.938 -11.761  -3.469  1.00  0.00     0.080 A 
ATOM      5  CAF 3M8 A 601      17.258 -11.764  -2.938  1.00  0.00     0.141 A 
ATOM      6  FAH 3M8 A 601      17.601 -12.795  -2.154  1.00  0.00    -0.204 F 
ATOM      7  CAA 3M8 A 601      18.162 -10.696  -3.049  1.00  0.00     0.100 A 
ATOM      8  CAG 3M8 A 601      19.367 -10.795  -2.474  1.00  0.00     0.104 C 
ATOM      9  NAJ 3M8 A 601      20.384 -10.879  -1.978  1.00  0.00    -0.191 NA
ENDROOT
BRANCH   1  10
ATOM     10  SAK 3M8 A 601      18.915  -8.199  -3.801  1.00  0.00    -0.127 SA
BRANCH  10  11
ATOM     11  CAL 3M8 A 601      17.720  -7.031  -4.390  1.00  0.00     0.094 C 
BRANCH  11  12
ATOM     12  CAM 3M8 A 601      18.296  -5.903  -5.282  1.00  0.00     0.147 C 
BRANCH  12  13
ATOM     13  SAN 3M8 A 601      18.422  -6.483  -6.845  1.00  0.00     0.081 S 
BRANCH  13  14
ATOM     14  OAQ 3M8 A 601      18.280  -5.353  -7.746  1.00  0.00    -0.308 OA
ATOM     15  H   3M8 A 601      18.226  -4.533  -7.230  1.00  0.00     0.230 HD
ENDBRANCH  13  14
BRANCH  13  16
ATOM     16  OAP 3M8 A 601      17.300  -7.445  -7.059  1.00  0.00    -0.308 OA
ATOM     17  H   3M8 A 601      16.540  -7.183  -6.516  1.00  0.00     0.230 HD
ENDBRANCH  13  16
BRANCH  13  18
ATOM     18  OAO 3M8 A 601      19.724  -7.086  -7.073  1.00  0.00    -0.308 OA
ATOM     19  H   3M8 A 601      19.960  -7.642  -6.314  1.00  0.00     0.230 HD
ENDBRANCH  13  18
ENDBRANCH  12  13
ENDBRANCH  11  12
ENDBRANCH  10  11
ENDBRANCH   1  10
BRANCH   3  20
ATOM     20  OAI 3M8 A 601      14.419 -10.509  -4.718  1.00  0.00    -0.361 OA
ATOM     21  H   3M8 A 601      14.083  -9.672  -4.974  1.00  0.00     0.217 HD
ENDBRANCH   3  20
TORSDOF 8
ENDMDL
MODEL 30
REMARK VINA RESULT:    -2.938      3.192      3.981
REMARK INTER + INTRA:          -4.343
REMARK INTER:                  -4.032
REMARK INTRA:                  -0.311
REMARK UNBOUND:                -0.374
REMARK  8 active torsions:
REMARK  status: ('A' for Active; 'I' for Inactive)
REMARK    1  A    between atoms: OAQ_1  and  SAN_2 
REMARK    2  A    between atoms: SAN_2  and  CAM_5 
REMARK    3  A    between atoms: SAN_2  and  OAP_4 
REMARK    4  A    between atoms: SAN_2  and  OAO_3 
REMARK    5  A    between atoms: CAM_5  and  CAL_6 
REMARK    6  A    between atoms: CAL_6  and  SAK_7 
REMARK    7  A    between atoms: SAK_7  and  CAB_8 
REMARK    8  A    between atoms: CAD_10  and  OAI_11 
ROOT
ATOM      1  CAB 3M8 A 601      18.127  -8.090  -4.390  1.00  0.00     0.027 A 
ATOM      2  CAC 3M8 A 601      16.831  -8.499  -3.991  1.00  0.00     0.056 A 
ATOM      3  CAD 3M8 A 601      15.708  -8.206  -4.755  1.00  0.00     0.070 A 
ATOM      4  CAE 3M8 A 601      15.720  -7.473  -5.949  1.00  0.00     0.080 A 
ATOM      5  CAF 3M8 A 601      17.019  -6.994  -6.272  1.00  0.00     0.141 A 
ATOM      6  FAH 3M8 A 601      17.157  -6.324  -7.425  1.00  0.00    -0.204 F 
ATOM      7  CAA 3M8 A 601      18.184  -7.307  -5.554  1.00  0.00     0.100 A 
ATOM      8  CAG 3M8 A 601      19.362  -6.830  -5.976  1.00  0.00     0.104 C 
ATOM      9  NAJ 3M8 A 601      20.359  -6.432  -6.341  1.00  0.00    -0.191 NA
ENDROOT
BRANCH   1  10
ATOM     10  SAK 3M8 A 601      19.584  -8.551  -3.590  1.00  0.00    -0.127 SA
BRANCH  10  11
ATOM     11  CAL 3M8 A 601      19.040 -10.189  -3.187  1.00  0.00     0.094 C 
BRANCH  11  12
ATOM     12  CAM 3M8 A 601      19.051 -10.525  -1.675  1.00  0.00     0.147 C 
BRANCH  12  13
ATOM     13  SAN 3M8 A 601      17.838 -11.637  -1.376  1.00  0.00     0.081 S 
BRANCH  13  14
ATOM     14  OAQ 3M8 A 601      17.988 -12.092  -0.005  1.00  0.00    -0.308 OA
ATOM     15  H   3M8 A 601      17.279 -11.716   0.539  1.00  0.00     0.230 HD
ENDBRANCH  13  14
BRANCH  13  16
ATOM     16  OAP 3M8 A 601      18.038 -12.782  -2.314  1.00  0.00    -0.308 OA
ATOM     17  H   3M8 A 601      18.904 -13.188  -2.150  1.00  0.00     0.230 HD
ENDBRANCH  13  16
BRANCH  13  18
ATOM     18  OAO 3M8 A 601      16.527 -11.027  -1.513  1.00  0.00    -0.308 OA
ATOM     19  H   3M8 A 601      16.337 -10.875  -2.452  1.00  0.00     0.230 HD
ENDBRANCH  13  18
ENDBRANCH  12  13
ENDBRANCH  11  12
ENDBRANCH  10  11
ENDBRANCH   1  10
BRANCH   3  20
ATOM     20  OAI 3M8 A 601      14.516  -8.740  -4.405  1.00  0.00    -0.361 OA
ATOM     21  H   3M8 A 601      13.858  -8.883  -5.057  1.00  0.00     0.217 HD
ENDBRANCH   3  20
TORSDOF 8
ENDMDL
MODEL 31
REMARK VINA RESULT:    -2.902      3.686      5.155
REMARK INTER + INTRA:          -4.294
REMARK INTER:                  -3.800
REMARK INTRA:                  -0.493
REMARK UNBOUND:                -0.374
REMARK  8 active torsions:
REMARK  status: ('A' for Active; 'I' for Inactive)
REMARK    1  A    between atoms: OAQ_1  and  SAN_2 
REMARK    2  A    between atoms: SAN_2  and  CAM_5 
REMARK    3  A    between atoms: SAN_2  and  OAP_4 
REMARK    4  A    between atoms: SAN_2  and  OAO_3 
REMARK    5  A    between atoms: CAM_5  and  CAL_6 
REMARK    6  A    between atoms: CAL_6  and  SAK_7 
REMARK    7  A    between atoms: SAK_7  and  CAB_8 
REMARK    8  A    between atoms: CAD_10  and  OAI_11 
ROOT
ATOM      1  CAB 3M8 A 601      18.003  -9.376  -2.289  1.00  0.00     0.027 A 
ATOM      2  CAC 3M8 A 601      17.844  -8.684  -3.515  1.00  0.00     0.056 A 
ATOM      3  CAD 3M8 A 601      16.864  -9.042  -4.432  1.00  0.00     0.070 A 
ATOM      4  CAE 3M8 A 601      15.968 -10.107  -4.272  1.00  0.00     0.080 A 
ATOM      5  CAF 3M8 A 601      16.213 -10.841  -3.078  1.00  0.00     0.141 A 
ATOM      6  FAH 3M8 A 601      15.379 -11.851  -2.797  1.00  0.00    -0.204 F 
ATOM      7  CAA 3M8 A 601      17.161 -10.485  -2.106  1.00  0.00     0.100 A 
ATOM      8  CAG 3M8 A 601      17.278 -11.230  -1.000  1.00  0.00     0.104 C 
ATOM      9  NAJ 3M8 A 601      17.367 -11.859  -0.060  1.00  0.00    -0.191 NA
ENDROOT
BRANCH   1  10
ATOM     10  SAK 3M8 A 601      19.080  -8.896  -1.031  1.00  0.00    -0.127 SA
BRANCH  10  11
ATOM     11  CAL 3M8 A 601      19.767  -7.522  -1.917  1.00  0.00     0.094 C 
BRANCH  11  12
ATOM     12  CAM 3M8 A 601      19.738  -6.175  -1.153  1.00  0.00     0.147 C 
BRANCH  12  13
ATOM     13  SAN 3M8 A 601      18.366  -5.339  -1.618  1.00  0.00     0.081 S 
BRANCH  13  14
ATOM     14  OAQ 3M8 A 601      18.321  -5.341  -3.069  1.00  0.00    -0.308 OA
ATOM     15  H   3M8 A 601      17.399  -5.396  -3.363  1.00  0.00     0.230 HD
ENDBRANCH  13  14
BRANCH  13  16
ATOM     16  OAP 3M8 A 601      18.503  -3.938  -1.118  1.00  0.00    -0.308 OA
ATOM     17  H   3M8 A 601      18.966  -3.401  -1.781  1.00  0.00     0.230 HD
ENDBRANCH  13  16
BRANCH  13  18
ATOM     18  OAO 3M8 A 601      17.166  -5.991  -1.123  1.00  0.00    -0.308 OA
ATOM     19  H   3M8 A 601      17.414  -6.720  -0.533  1.00  0.00     0.230 HD
ENDBRANCH  13  18
ENDBRANCH  12  13
ENDBRANCH  11  12
ENDBRANCH  10  11
ENDBRANCH   1  10
BRANCH   3  20
ATOM     20  OAI 3M8 A 601      16.662  -8.264  -5.519  1.00  0.00    -0.361 OA
ATOM     21  H   3M8 A 601      16.042  -8.523  -6.171  1.00  0.00     0.217 HD
ENDBRANCH   3  20
TORSDOF 8
ENDMDL
MODEL 32
REMARK VINA RESULT:    -2.877      3.962      5.537
REMARK INTER + INTRA:          -4.260
REMARK INTER:                  -3.890
REMARK INTRA:                  -0.370
REMARK UNBOUND:                -0.374
REMARK  8 active torsions:
REMARK  status: ('A' for Active; 'I' for Inactive)
REMARK    1  A    between atoms: OAQ_1  and  SAN_2 
REMARK    2  A    between atoms: SAN_2  and  CAM_5 
REMARK    3  A    between atoms: SAN_2  and  OAP_4 
REMARK    4  A    between atoms: SAN_2  and  OAO_3 
REMARK    5  A    between atoms: CAM_5  and  CAL_6 
REMARK    6  A    between atoms: CAL_6  and  SAK_7 
REMARK    7  A    between atoms: SAK_7  and  CAB_8 
REMARK    8  A    between atoms: CAD_10  and  OAI_11 
ROOT
ATOM      1  CAB 3M8 A 601      17.293 -10.219  -3.197  1.00  0.00     0.027 A 
ATOM      2  CAC 3M8 A 601      18.699 -10.164  -3.035  1.00  0.00     0.056 A 
ATOM      3  CAD 3M8 A 601      19.322 -10.673  -1.903  1.00  0.00     0.070 A 
ATOM      4  CAE 3M8 A 601      18.657 -11.252  -0.814  1.00  0.00     0.080 A 
ATOM      5  CAF 3M8 A 601      17.243 -11.207  -0.962  1.00  0.00     0.141 A 
ATOM      6  FAH 3M8 A 601      16.507 -11.783  -0.002  1.00  0.00    -0.204 F 
ATOM      7  CAA 3M8 A 601      16.578 -10.745  -2.108  1.00  0.00     0.100 A 
ATOM      8  CAG 3M8 A 601      15.240 -10.786  -2.152  1.00  0.00     0.104 C 
ATOM      9  NAJ 3M8 A 601      14.107 -10.831  -2.188  1.00  0.00    -0.191 NA
ENDROOT
BRANCH   1  10
ATOM     10  SAK 3M8 A 601      16.458  -9.762  -4.635  1.00  0.00    -0.127 SA
BRANCH  10  11
ATOM     11  CAL 3M8 A 601      16.829  -8.034  -4.500  1.00  0.00     0.094 C 
BRANCH  11  12
ATOM     12  CAM 3M8 A 601      17.279  -7.359  -5.820  1.00  0.00     0.147 C 
BRANCH  12  13
ATOM     13  SAN 3M8 A 601      18.944  -7.471  -5.925  1.00  0.00     0.081 S 
BRANCH  13  14
ATOM     14  OAQ 3M8 A 601      19.282  -8.877  -6.059  1.00  0.00    -0.308 OA
ATOM     15  H   3M8 A 601      20.025  -8.973  -6.675  1.00  0.00     0.230 HD
ENDBRANCH  13  14
BRANCH  13  16
ATOM     16  OAP 3M8 A 601      19.512  -6.934  -4.652  1.00  0.00    -0.308 OA
ATOM     17  H   3M8 A 601      20.338  -6.461  -4.840  1.00  0.00     0.230 HD
ENDBRANCH  13  16
BRANCH  13  18
ATOM     18  OAO 3M8 A 601      19.441  -6.769  -7.096  1.00  0.00    -0.308 OA
ATOM     19  H   3M8 A 601      19.327  -7.328  -7.881  1.00  0.00     0.230 HD
ENDBRANCH  13  18
ENDBRANCH  12  13
ENDBRANCH  11  12
ENDBRANCH  10  11
ENDBRANCH   1  10
BRANCH   3  20
ATOM     20  OAI 3M8 A 601      20.672 -10.724  -1.860  1.00  0.00    -0.361 OA
ATOM     21  H   3M8 A 601      21.179 -10.093  -2.332  1.00  0.00     0.217 HD
ENDBRANCH   3  20
TORSDOF 8
ENDMDL
MODEL 33
REMARK VINA RESULT:    -2.866      3.992      4.964
REMARK INTER + INTRA:          -4.246
REMARK INTER:                  -3.296
REMARK INTRA:                  -0.949
REMARK UNBOUND:                -0.374
REMARK  8 active torsions:
REMARK  status: ('A' for Active; 'I' for Inactive)
REMARK    1  A    between atoms: OAQ_1  and  SAN_2 
REMARK    2  A    between atoms: SAN_2  and  CAM_5 
REMARK    3  A    between atoms: SAN_2  and  OAP_4 
REMARK    4  A    between atoms: SAN_2  and  OAO_3 
REMARK    5  A    between atoms: CAM_5  and  CAL_6 
REMARK    6  A    between atoms: CAL_6  and  SAK_7 
REMARK    7  A    between atoms: SAK_7  and  CAB_8 
REMARK    8  A    between atoms: CAD_10  and  OAI_11 
ROOT
ATOM      1  CAB 3M8 A 601      19.220  -6.707  -5.644  1.00  0.00     0.027 A 
ATOM      2  CAC 3M8 A 601      19.259  -5.485  -6.358  1.00  0.00     0.056 A 
ATOM      3  CAD 3M8 A 601      18.106  -4.905  -6.873  1.00  0.00     0.070 A 
ATOM      4  CAE 3M8 A 601      16.821  -5.455  -6.776  1.00  0.00     0.080 A 
ATOM      5  CAF 3M8 A 601      16.827  -6.727  -6.139  1.00  0.00     0.141 A 
ATOM      6  FAH 3M8 A 601      15.642  -7.321  -5.945  1.00  0.00    -0.204 F 
ATOM      7  CAA 3M8 A 601      17.960  -7.324  -5.566  1.00  0.00     0.100 A 
ATOM      8  CAG 3M8 A 601      17.839  -8.509  -4.956  1.00  0.00     0.104 C 
ATOM      9  NAJ 3M8 A 601      17.730  -9.510  -4.432  1.00  0.00    -0.191 NA
ENDROOT
BRANCH   1  10
ATOM     10  SAK 3M8 A 601      20.572  -7.408  -4.835  1.00  0.00    -0.127 SA
BRANCH  10  11
ATOM     11  CAL 3M8 A 601      20.470  -6.364  -3.407  1.00  0.00     0.094 C 
BRANCH  11  12
ATOM     12  CAM 3M8 A 601      20.521  -7.109  -2.050  1.00  0.00     0.147 C 
BRANCH  12  13
ATOM     13  SAN 3M8 A 601      18.966  -7.201  -1.443  1.00  0.00     0.081 S 
BRANCH  13  14
ATOM     14  OAQ 3M8 A 601      18.464  -8.535  -1.721  1.00  0.00    -0.308 OA
ATOM     15  H   3M8 A 601      17.495  -8.529  -1.686  1.00  0.00     0.230 HD
ENDBRANCH  13  14
BRANCH  13  16
ATOM     16  OAP 3M8 A 601      18.140  -6.188  -2.168  1.00  0.00    -0.308 OA
ATOM     17  H   3M8 A 601      17.332  -6.609  -2.503  1.00  0.00     0.230 HD
ENDBRANCH  13  16
BRANCH  13  18
ATOM     18  OAO 3M8 A 601      18.955  -7.001  -0.004  1.00  0.00    -0.308 OA
ATOM     19  H   3M8 A 601      19.607  -7.589   0.409  1.00  0.00     0.230 HD
ENDBRANCH  13  18
ENDBRANCH  12  13
ENDBRANCH  11  12
ENDBRANCH  10  11
ENDBRANCH   1  10
BRANCH   3  20
ATOM     20  OAI 3M8 A 601      18.177  -3.672  -7.421  1.00  0.00    -0.361 OA
ATOM     21  H   3M8 A 601      17.392  -3.222  -7.665  1.00  0.00     0.217 HD
ENDBRANCH   3  20
TORSDOF 8
ENDMDL
MODEL 34
REMARK VINA RESULT:    -2.856      3.293      3.981
REMARK INTER + INTRA:          -4.231
REMARK INTER:                  -3.976
REMARK INTRA:                  -0.255
REMARK UNBOUND:                -0.374
REMARK  8 active torsions:
REMARK  status: ('A' for Active; 'I' for Inactive)
REMARK    1  A    between atoms: OAQ_1  and  SAN_2 
REMARK    2  A    between atoms: SAN_2  and  CAM_5 
REMARK    3  A    between atoms: SAN_2  and  OAP_4 
REMARK    4  A    between atoms: SAN_2  and  OAO_3 
REMARK    5  A    between atoms: CAM_5  and  CAL_6 
REMARK    6  A    between atoms: CAL_6  and  SAK_7 
REMARK    7  A    between atoms: SAK_7  and  CAB_8 
REMARK    8  A    between atoms: CAD_10  and  OAI_11 
ROOT
ATOM      1  CAB 3M8 A 601      18.254  -7.012  -3.481  1.00  0.00     0.027 A 
ATOM      2  CAC 3M8 A 601      18.412  -6.332  -2.248  1.00  0.00     0.056 A 
ATOM      3  CAD 3M8 A 601      18.404  -4.945  -2.175  1.00  0.00     0.070 A 
ATOM      4  CAE 3M8 A 601      18.273  -4.086  -3.274  1.00  0.00     0.080 A 
ATOM      5  CAF 3M8 A 601      18.213  -4.794  -4.506  1.00  0.00     0.141 A 
ATOM      6  FAH 3M8 A 601      18.033  -4.072  -5.620  1.00  0.00    -0.204 F 
ATOM      7  CAA 3M8 A 601      18.171  -6.192  -4.618  1.00  0.00     0.100 A 
ATOM      8  CAG 3M8 A 601      18.075  -6.750  -5.832  1.00  0.00     0.104 C 
ATOM      9  NAJ 3M8 A 601      17.984  -7.219  -6.861  1.00  0.00    -0.191 NA
ENDROOT
BRANCH   1  10
ATOM     10  SAK 3M8 A 601      18.089  -8.721  -3.637  1.00  0.00    -0.127 SA
BRANCH  10  11
ATOM     11  CAL 3M8 A 601      18.422  -9.077  -1.933  1.00  0.00     0.094 C 
BRANCH  11  12
ATOM     12  CAM 3M8 A 601      18.730 -10.563  -1.625  1.00  0.00     0.147 C 
BRANCH  12  13
ATOM     13  SAN 3M8 A 601      17.294 -11.328  -1.241  1.00  0.00     0.081 S 
BRANCH  13  14
ATOM     14  OAQ 3M8 A 601      16.308 -10.299  -0.964  1.00  0.00    -0.308 OA
ATOM     15  H   3M8 A 601      16.096  -9.827  -1.784  1.00  0.00     0.230 HD
ENDBRANCH  13  14
BRANCH  13  16
ATOM     16  OAP 3M8 A 601      17.534 -12.143  -0.012  1.00  0.00    -0.308 OA
ATOM     17  H   3M8 A 601      17.095 -13.003  -0.103  1.00  0.00     0.230 HD
ENDBRANCH  13  16
BRANCH  13  18
ATOM     18  OAO 3M8 A 601      16.816 -12.129  -2.355  1.00  0.00    -0.308 OA
ATOM     19  H   3M8 A 601      17.571 -12.536  -2.808  1.00  0.00     0.230 HD
ENDBRANCH  13  18
ENDBRANCH  12  13
ENDBRANCH  11  12
ENDBRANCH  10  11
ENDBRANCH   1  10
BRANCH   3  20
ATOM     20  OAI 3M8 A 601      18.416  -4.349  -0.962  1.00  0.00    -0.361 OA
ATOM     21  H   3M8 A 601      17.691  -4.459  -0.379  1.00  0.00     0.217 HD
ENDBRANCH   3  20
TORSDOF 8
ENDMDL
MODEL 35
REMARK VINA RESULT:    -2.847      3.887      5.791
REMARK INTER + INTRA:          -4.219
REMARK INTER:                  -3.290
REMARK INTRA:                  -0.928
REMARK UNBOUND:                -0.374
REMARK  8 active torsions:
REMARK  status: ('A' for Active; 'I' for Inactive)
REMARK    1  A    between atoms: OAQ_1  and  SAN_2 
REMARK    2  A    between atoms: SAN_2  and  CAM_5 
REMARK    3  A    between atoms: SAN_2  and  OAP_4 
REMARK    4  A    between atoms: SAN_2  and  OAO_3 
REMARK    5  A    between atoms: CAM_5  and  CAL_6 
REMARK    6  A    between atoms: CAL_6  and  SAK_7 
REMARK    7  A    between atoms: SAK_7  and  CAB_8 
REMARK    8  A    between atoms: CAD_10  and  OAI_11 
ROOT
ATOM      1  CAB 3M8 A 601      19.192  -9.356  -1.753  1.00  0.00     0.027 A 
ATOM      2  CAC 3M8 A 601      18.696 -10.219  -0.746  1.00  0.00     0.056 A 
ATOM      3  CAD 3M8 A 601      17.570 -11.007  -0.953  1.00  0.00     0.070 A 
ATOM      4  CAE 3M8 A 601      16.804 -11.018  -2.126  1.00  0.00     0.080 A 
ATOM      5  CAF 3M8 A 601      17.270 -10.073  -3.081  1.00  0.00     0.141 A 
ATOM      6  FAH 3M8 A 601      16.643 -10.036  -4.264  1.00  0.00    -0.204 F 
ATOM      7  CAA 3M8 A 601      18.428  -9.294  -2.930  1.00  0.00     0.100 A 
ATOM      8  CAG 3M8 A 601      18.793  -8.464  -3.915  1.00  0.00     0.104 C 
ATOM      9  NAJ 3M8 A 601      19.103  -7.768  -4.755  1.00  0.00    -0.191 NA
ENDROOT
BRANCH   1  10
ATOM     10  SAK 3M8 A 601      20.669  -8.473  -1.639  1.00  0.00    -0.127 SA
BRANCH  10  11
ATOM     11  CAL 3M8 A 601      20.075  -7.311  -0.440  1.00  0.00     0.094 C 
BRANCH  11  12
ATOM     12  CAM 3M8 A 601      20.191  -5.824  -0.859  1.00  0.00     0.147 C 
BRANCH  12  13
ATOM     13  SAN 3M8 A 601      18.707  -5.327  -1.446  1.00  0.00     0.081 S 
BRANCH  13  14
ATOM     14  OAQ 3M8 A 601      18.771  -5.371  -2.896  1.00  0.00    -0.308 OA
ATOM     15  H   3M8 A 601      19.445  -4.747  -3.208  1.00  0.00     0.230 HD
ENDBRANCH  13  14
BRANCH  13  16
ATOM     16  OAP 3M8 A 601      18.491  -3.921  -0.991  1.00  0.00    -0.308 OA
ATOM     17  H   3M8 A 601      17.604  -3.628  -1.254  1.00  0.00     0.230 HD
ENDBRANCH  13  16
BRANCH  13  18
ATOM     18  OAO 3M8 A 601      17.648  -6.222  -1.011  1.00  0.00    -0.308 OA
ATOM     19  H   3M8 A 601      17.817  -7.114  -1.353  1.00  0.00     0.230 HD
ENDBRANCH  13  18
ENDBRANCH  12  13
ENDBRANCH  11  12
ENDBRANCH  10  11
ENDBRANCH   1  10
BRANCH   3  20
ATOM     20  OAI 3M8 A 601      17.221 -11.916  -0.015  1.00  0.00    -0.361 OA
ATOM     21  H   3M8 A 601      17.425 -12.821  -0.142  1.00  0.00     0.217 HD
ENDBRANCH   3  20
TORSDOF 8
ENDMDL
MODEL 36
REMARK VINA RESULT:    -2.844      2.751      3.756
REMARK INTER + INTRA:          -4.216
REMARK INTER:                  -3.453
REMARK INTRA:                  -0.763
REMARK UNBOUND:                -0.374
REMARK  8 active torsions:
REMARK  status: ('A' for Active; 'I' for Inactive)
REMARK    1  A    between atoms: OAQ_1  and  SAN_2 
REMARK    2  A    between atoms: SAN_2  and  CAM_5 
REMARK    3  A    between atoms: SAN_2  and  OAP_4 
REMARK    4  A    between atoms: SAN_2  and  OAO_3 
REMARK    5  A    between atoms: CAM_5  and  CAL_6 
REMARK    6  A    between atoms: CAL_6  and  SAK_7 
REMARK    7  A    between atoms: SAK_7  and  CAB_8 
REMARK    8  A    between atoms: CAD_10  and  OAI_11 
ROOT
ATOM      1  CAB 3M8 A 601      19.321  -5.829  -4.420  1.00  0.00     0.027 A 
ATOM      2  CAC 3M8 A 601      19.231  -6.129  -5.801  1.00  0.00     0.056 A 
ATOM      3  CAD 3M8 A 601      18.508  -5.327  -6.675  1.00  0.00     0.070 A 
ATOM      4  CAE 3M8 A 601      17.784  -4.186  -6.302  1.00  0.00     0.080 A 
ATOM      5  CAF 3M8 A 601      17.815  -3.966  -4.898  1.00  0.00     0.141 A 
ATOM      6  FAH 3M8 A 601      17.199  -2.868  -4.436  1.00  0.00    -0.204 F 
ATOM      7  CAA 3M8 A 601      18.570  -4.723  -3.989  1.00  0.00     0.100 A 
ATOM      8  CAG 3M8 A 601      18.552  -4.398  -2.691  1.00  0.00     0.104 C 
ATOM      9  NAJ 3M8 A 601      18.542  -4.114  -1.592  1.00  0.00    -0.191 NA
ENDROOT
BRANCH   1  10
ATOM     10  SAK 3M8 A 601      20.327  -6.674  -3.302  1.00  0.00    -0.127 SA
BRANCH  10  11
ATOM     11  CAL 3M8 A 601      19.516  -8.238  -3.500  1.00  0.00     0.094 C 
BRANCH  11  12
ATOM     12  CAM 3M8 A 601      18.182  -8.383  -2.724  1.00  0.00     0.147 C 
BRANCH  12  13
ATOM     13  SAN 3M8 A 601      17.003  -8.882  -3.800  1.00  0.00     0.081 S 
BRANCH  13  14
ATOM     14  OAQ 3M8 A 601      16.012  -9.631  -3.048  1.00  0.00    -0.308 OA
ATOM     15  H   3M8 A 601      15.618 -10.309  -3.619  1.00  0.00     0.230 HD
ENDBRANCH  13  14
BRANCH  13  16
ATOM     16  OAP 3M8 A 601      17.657  -9.774  -4.803  1.00  0.00    -0.308 OA
ATOM     17  H   3M8 A 601      18.353  -9.282  -5.268  1.00  0.00     0.230 HD
ENDBRANCH  13  16
BRANCH  13  18
ATOM     18  OAO 3M8 A 601      16.343  -7.743  -4.414  1.00  0.00    -0.308 OA
ATOM     19  H   3M8 A 601      16.234  -7.905  -5.364  1.00  0.00     0.230 HD
ENDBRANCH  13  18
ENDBRANCH  12  13
ENDBRANCH  11  12
ENDBRANCH  10  11
ENDBRANCH   1  10
BRANCH   3  20
ATOM     20  OAI 3M8 A 601      18.569  -5.576  -8.002  1.00  0.00    -0.361 OA
ATOM     21  H   3M8 A 601      18.329  -6.420  -8.332  1.00  0.00     0.217 HD
ENDBRANCH   3  20
TORSDOF 8
ENDMDL
MODEL 37
REMARK VINA RESULT:    -2.808      2.679      3.059
REMARK INTER + INTRA:          -4.166
REMARK INTER:                  -3.861
REMARK INTRA:                  -0.305
REMARK UNBOUND:                -0.374
REMARK  8 active torsions:
REMARK  status: ('A' for Active; 'I' for Inactive)
REMARK    1  A    between atoms: OAQ_1  and  SAN_2 
REMARK    2  A    between atoms: SAN_2  and  CAM_5 
REMARK    3  A    between atoms: SAN_2  and  OAP_4 
REMARK    4  A    between atoms: SAN_2  and  OAO_3 
REMARK    5  A    between atoms: CAM_5  and  CAL_6 
REMARK    6  A    between atoms: CAL_6  and  SAK_7 
REMARK    7  A    between atoms: SAK_7  and  CAB_8 
REMARK    8  A    between atoms: CAD_10  and  OAI_11 
ROOT
ATOM      1  CAB 3M8 A 601      19.845  -7.398  -3.740  1.00  0.00     0.027 A 
ATOM      2  CAC 3M8 A 601      20.164  -7.554  -5.111  1.00  0.00     0.056 A 
ATOM      3  CAD 3M8 A 601      19.655  -6.698  -6.079  1.00  0.00     0.070 A 
ATOM      4  CAE 3M8 A 601      18.776  -5.637  -5.828  1.00  0.00     0.080 A 
ATOM      5  CAF 3M8 A 601      18.398  -5.564  -4.458  1.00  0.00     0.141 A 
ATOM      6  FAH 3M8 A 601      17.600  -4.551  -4.095  1.00  0.00    -0.204 F 
ATOM      7  CAA 3M8 A 601      18.925  -6.379  -3.444  1.00  0.00     0.100 A 
ATOM      8  CAG 3M8 A 601      18.524  -6.194  -2.180  1.00  0.00     0.104 C 
ATOM      9  NAJ 3M8 A 601      18.188  -6.028  -1.109  1.00  0.00    -0.191 NA
ENDROOT
BRANCH   1  10
ATOM     10  SAK 3M8 A 601      20.559  -8.310  -2.462  1.00  0.00    -0.127 SA
BRANCH  10  11
ATOM     11  CAL 3M8 A 601      19.883  -9.867  -2.972  1.00  0.00     0.094 C 
BRANCH  11  12
ATOM     12  CAM 3M8 A 601      18.659 -10.346  -2.154  1.00  0.00     0.147 C 
BRANCH  12  13
ATOM     13  SAN 3M8 A 601      18.132 -11.796  -2.798  1.00  0.00     0.081 S 
BRANCH  13  14
ATOM     14  OAQ 3M8 A 601      17.281 -11.489  -3.933  1.00  0.00    -0.308 OA
ATOM     15  H   3M8 A 601      17.768 -10.933  -4.561  1.00  0.00     0.230 HD
ENDBRANCH  13  14
BRANCH  13  16
ATOM     16  OAP 3M8 A 601      17.336 -12.494  -1.743  1.00  0.00    -0.308 OA
ATOM     17  H   3M8 A 601      16.550 -11.967  -1.529  1.00  0.00     0.230 HD
ENDBRANCH  13  16
BRANCH  13  18
ATOM     18  OAO 3M8 A 601      19.251 -12.593  -3.269  1.00  0.00    -0.308 OA
ATOM     19  H   3M8 A 601      19.918 -12.662  -2.568  1.00  0.00     0.230 HD
ENDBRANCH  13  18
ENDBRANCH  12  13
ENDBRANCH  11  12
ENDBRANCH  10  11
ENDBRANCH   1  10
BRANCH   3  20
ATOM     20  OAI 3M8 A 601      20.101  -6.803  -7.351  1.00  0.00    -0.361 OA
ATOM     21  H   3M8 A 601      19.611  -7.295  -7.980  1.00  0.00     0.217 HD
ENDBRANCH   3  20
TORSDOF 8
ENDMDL
MODEL 38
REMARK VINA RESULT:    -2.806      3.306      5.487
REMARK INTER + INTRA:          -4.165
REMARK INTER:                  -3.539
REMARK INTRA:                  -0.625
REMARK UNBOUND:                -0.374
REMARK  8 active torsions:
REMARK  status: ('A' for Active; 'I' for Inactive)
REMARK    1  A    between atoms: OAQ_1  and  SAN_2 
REMARK    2  A    between atoms: SAN_2  and  CAM_5 
REMARK    3  A    between atoms: SAN_2  and  OAP_4 
REMARK    4  A    between atoms: SAN_2  and  OAO_3 
REMARK    5  A    between atoms: CAM_5  and  CAL_6 
REMARK    6  A    between atoms: CAL_6  and  SAK_7 
REMARK    7  A    between atoms: SAK_7  and  CAB_8 
REMARK    8  A    between atoms: CAD_10  and  OAI_11 
ROOT
ATOM      1  CAB 3M8 A 601      17.837  -9.112  -3.218  1.00  0.00     0.027 A 
ATOM      2  CAC 3M8 A 601      18.094 -10.442  -3.632  1.00  0.00     0.056 A 
ATOM      3  CAD 3M8 A 601      18.784 -11.336  -2.822  1.00  0.00     0.070 A 
ATOM      4  CAE 3M8 A 601      19.313 -11.030  -1.561  1.00  0.00     0.080 A 
ATOM      5  CAF 3M8 A 601      19.123  -9.663  -1.215  1.00  0.00     0.141 A 
ATOM      6  FAH 3M8 A 601      19.542  -9.273  -0.004  1.00  0.00    -0.204 F 
ATOM      7  CAA 3M8 A 601      18.392  -8.743  -1.982  1.00  0.00     0.100 A 
ATOM      8  CAG 3M8 A 601      18.245  -7.489  -1.537  1.00  0.00     0.104 C 
ATOM      9  NAJ 3M8 A 601      18.115  -6.430  -1.153  1.00  0.00    -0.191 NA
ENDROOT
BRANCH   1  10
ATOM     10  SAK 3M8 A 601      16.851  -7.995  -4.087  1.00  0.00    -0.127 SA
BRANCH  10  11
ATOM     11  CAL 3M8 A 601      17.825  -8.033  -5.568  1.00  0.00     0.094 C 
BRANCH  11  12
ATOM     12  CAM 3M8 A 601      18.591  -6.722  -5.878  1.00  0.00     0.147 C 
BRANCH  12  13
ATOM     13  SAN 3M8 A 601      20.230  -7.032  -5.755  1.00  0.00     0.081 S 
BRANCH  13  14
ATOM     14  OAQ 3M8 A 601      20.838  -6.688  -7.028  1.00  0.00    -0.308 OA
ATOM     15  H   3M8 A 601      20.884  -7.479  -7.588  1.00  0.00     0.230 HD
ENDBRANCH  13  14
BRANCH  13  16
ATOM     16  OAP 3M8 A 601      20.393  -8.494  -5.495  1.00  0.00    -0.308 OA
ATOM     17  H   3M8 A 601      19.618  -8.971  -5.833  1.00  0.00     0.230 HD
ENDBRANCH  13  16
BRANCH  13  18
ATOM     18  OAO 3M8 A 601      20.839  -6.212  -4.723  1.00  0.00    -0.308 OA
ATOM     19  H   3M8 A 601      21.804  -6.229  -4.823  1.00  0.00     0.230 HD
ENDBRANCH  13  18
ENDBRANCH  12  13
ENDBRANCH  11  12
ENDBRANCH  10  11
ENDBRANCH   1  10
BRANCH   3  20
ATOM     20  OAI 3M8 A 601      18.880 -12.630  -3.201  1.00  0.00    -0.361 OA
ATOM     21  H   3M8 A 601      18.985 -12.846  -4.106  1.00  0.00     0.217 HD
ENDBRANCH   3  20
TORSDOF 8
ENDMDL
MODEL 39
REMARK VINA RESULT:    -2.799      3.145      4.209
REMARK INTER + INTRA:          -4.155
REMARK INTER:                  -3.224
REMARK INTRA:                  -0.931
REMARK UNBOUND:                -0.374
REMARK  8 active torsions:
REMARK  status: ('A' for Active; 'I' for Inactive)
REMARK    1  A    between atoms: OAQ_1  and  SAN_2 
REMARK    2  A    between atoms: SAN_2  and  CAM_5 
REMARK    3  A    between atoms: SAN_2  and  OAP_4 
REMARK    4  A    between atoms: SAN_2  and  OAO_3 
REMARK    5  A    between atoms: CAM_5  and  CAL_6 
REMARK    6  A    between atoms: CAL_6  and  SAK_7 
REMARK    7  A    between atoms: SAK_7  and  CAB_8 
REMARK    8  A    between atoms: CAD_10  and  OAI_11 
ROOT
ATOM      1  CAB 3M8 A 601      18.970  -6.111  -3.917  1.00  0.00     0.027 A 
ATOM      2  CAC 3M8 A 601      19.032  -5.006  -3.034  1.00  0.00     0.056 A 
ATOM      3  CAD 3M8 A 601      18.389  -3.808  -3.321  1.00  0.00     0.070 A 
ATOM      4  CAE 3M8 A 601      17.655  -3.552  -4.487  1.00  0.00     0.080 A 
ATOM      5  CAF 3M8 A 601      17.691  -4.646  -5.396  1.00  0.00     0.141 A 
ATOM      6  FAH 3M8 A 601      16.977  -4.530  -6.524  1.00  0.00    -0.204 F 
ATOM      7  CAA 3M8 A 601      18.289  -5.886  -5.124  1.00  0.00     0.100 A 
ATOM      8  CAG 3M8 A 601      18.227  -6.859  -6.042  1.00  0.00     0.104 C 
ATOM      9  NAJ 3M8 A 601      18.164  -7.683  -6.819  1.00  0.00    -0.191 NA
ENDROOT
BRANCH   1  10
ATOM     10  SAK 3M8 A 601      19.598  -7.678  -3.563  1.00  0.00    -0.127 SA
BRANCH  10  11
ATOM     11  CAL 3M8 A 601      18.323  -8.112  -2.411  1.00  0.00     0.094 C 
BRANCH  11  12
ATOM     12  CAM 3M8 A 601      17.824  -9.575  -2.511  1.00  0.00     0.147 C 
BRANCH  12  13
ATOM     13  SAN 3M8 A 601      16.739  -9.673  -3.779  1.00  0.00     0.081 S 
BRANCH  13  14
ATOM     14  OAQ 3M8 A 601      15.819 -10.758  -3.487  1.00  0.00    -0.308 OA
ATOM     15  H   3M8 A 601      15.895 -11.002  -2.552  1.00  0.00     0.230 HD
ENDBRANCH  13  14
BRANCH  13  16
ATOM     16  OAP 3M8 A 601      17.519  -9.990  -5.014  1.00  0.00    -0.308 OA
ATOM     17  H   3M8 A 601      17.170  -9.474  -5.758  1.00  0.00     0.230 HD
ENDBRANCH  13  16
BRANCH  13  18
ATOM     18  OAO 3M8 A 601      15.972  -8.446  -3.905  1.00  0.00    -0.308 OA
ATOM     19  H   3M8 A 601      15.440  -8.314  -3.104  1.00  0.00     0.230 HD
ENDBRANCH  13  18
ENDBRANCH  12  13
ENDBRANCH  11  12
ENDBRANCH  10  11
ENDBRANCH   1  10
BRANCH   3  20
ATOM     20  OAI 3M8 A 601      18.360  -2.835  -2.384  1.00  0.00    -0.361 OA
ATOM     21  H   3M8 A 601      18.213  -3.055  -1.485  1.00  0.00     0.217 HD
ENDBRANCH   3  20
TORSDOF 8
ENDMDL
MODEL 40
REMARK VINA RESULT:    -2.728      2.962      3.446
REMARK INTER + INTRA:          -4.059
REMARK INTER:                  -3.463
REMARK INTRA:                  -0.596
REMARK UNBOUND:                -0.374
REMARK  8 active torsions:
REMARK  status: ('A' for Active; 'I' for Inactive)
REMARK    1  A    between atoms: OAQ_1  and  SAN_2 
REMARK    2  A    between atoms: SAN_2  and  CAM_5 
REMARK    3  A    between atoms: SAN_2  and  OAP_4 
REMARK    4  A    between atoms: SAN_2  and  OAO_3 
REMARK    5  A    between atoms: CAM_5  and  CAL_6 
REMARK    6  A    between atoms: CAL_6  and  SAK_7 
REMARK    7  A    between atoms: SAK_7  and  CAB_8 
REMARK    8  A    between atoms: CAD_10  and  OAI_11 
ROOT
ATOM      1  CAB 3M8 A 601      18.563  -8.573  -4.830  1.00  0.00     0.027 A 
ATOM      2  CAC 3M8 A 601      19.194  -7.422  -5.361  1.00  0.00     0.056 A 
ATOM      3  CAD 3M8 A 601      18.462  -6.390  -5.936  1.00  0.00     0.070 A 
ATOM      4  CAE 3M8 A 601      17.068  -6.381  -6.080  1.00  0.00     0.080 A 
ATOM      5  CAF 3M8 A 601      16.473  -7.590  -5.625  1.00  0.00     0.141 A 
ATOM      6  FAH 3M8 A 601      15.135  -7.668  -5.667  1.00  0.00    -0.204 F 
ATOM      7  CAA 3M8 A 601      17.170  -8.633  -4.997  1.00  0.00     0.100 A 
ATOM      8  CAG 3M8 A 601      16.497  -9.710  -4.574  1.00  0.00     0.104 C 
ATOM      9  NAJ 3M8 A 601      15.922 -10.618  -4.209  1.00  0.00    -0.191 NA
ENDROOT
BRANCH   1  10
ATOM     10  SAK 3M8 A 601      19.380  -9.817  -3.957  1.00  0.00    -0.127 SA
BRANCH  10  11
ATOM     11  CAL 3M8 A 601      18.976  -9.184  -2.351  1.00  0.00     0.094 C 
BRANCH  11  12
ATOM     12  CAM 3M8 A 601      19.037 -10.226  -1.206  1.00  0.00     0.147 C 
BRANCH  12  13
ATOM     13  SAN 3M8 A 601      17.601 -11.083  -1.199  1.00  0.00     0.081 S 
BRANCH  13  14
ATOM     14  OAQ 3M8 A 601      17.609 -11.961  -2.356  1.00  0.00    -0.308 OA
ATOM     15  H   3M8 A 601      18.292 -11.668  -2.979  1.00  0.00     0.230 HD
ENDBRANCH  13  14
BRANCH  13  16
ATOM     16  OAP 3M8 A 601      16.487 -10.095  -1.321  1.00  0.00    -0.308 OA
ATOM     17  H   3M8 A 601      16.614  -9.561  -2.122  1.00  0.00     0.230 HD
ENDBRANCH  13  16
BRANCH  13  18
ATOM     18  OAO 3M8 A 601      17.490 -11.903  -0.006  1.00  0.00    -0.308 OA
ATOM     19  H   3M8 A 601      18.133 -12.628  -0.050  1.00  0.00     0.230 HD
ENDBRANCH  13  18
ENDBRANCH  12  13
ENDBRANCH  11  12
ENDBRANCH  10  11
ENDBRANCH   1  10
BRANCH   3  20
ATOM     20  OAI 3M8 A 601      19.097  -5.254  -6.298  1.00  0.00    -0.361 OA
ATOM     21  H   3M8 A 601      19.181  -5.033  -7.205  1.00  0.00     0.217 HD
ENDBRANCH   3  20
TORSDOF 8
ENDMDL
MODEL 41
REMARK VINA RESULT:    -2.714      4.236      5.333
REMARK INTER + INTRA:          -4.040
REMARK INTER:                  -3.369
REMARK INTRA:                  -0.671
REMARK UNBOUND:                -0.374
REMARK  8 active torsions:
REMARK  status: ('A' for Active; 'I' for Inactive)
REMARK    1  A    between atoms: OAQ_1  and  SAN_2 
REMARK    2  A    between atoms: SAN_2  and  CAM_5 
REMARK    3  A    between atoms: SAN_2  and  OAP_4 
REMARK    4  A    between atoms: SAN_2  and  OAO_3 
REMARK    5  A    between atoms: CAM_5  and  CAL_6 
REMARK    6  A    between atoms: CAL_6  and  SAK_7 
REMARK    7  A    between atoms: SAK_7  and  CAB_8 
REMARK    8  A    between atoms: CAD_10  and  OAI_11 
ROOT
ATOM      1  CAB 3M8 A 601      19.673  -5.723  -4.328  1.00  0.00     0.027 A 
ATOM      2  CAC 3M8 A 601      20.055  -4.801  -3.324  1.00  0.00     0.056 A 
ATOM      3  CAD 3M8 A 601      19.405  -3.582  -3.169  1.00  0.00     0.070 A 
ATOM      4  CAE 3M8 A 601      18.355  -3.126  -3.976  1.00  0.00     0.080 A 
ATOM      5  CAF 3M8 A 601      18.058  -4.030  -5.034  1.00  0.00     0.141 A 
ATOM      6  FAH 3M8 A 601      17.032  -3.719  -5.837  1.00  0.00    -0.204 F 
ATOM      7  CAA 3M8 A 601      18.658  -5.288  -5.196  1.00  0.00     0.100 A 
ATOM      8  CAG 3M8 A 601      18.271  -6.073  -6.209  1.00  0.00     0.104 C 
ATOM      9  NAJ 3M8 A 601      17.933  -6.740  -7.064  1.00  0.00    -0.191 NA
ENDROOT
BRANCH   1  10
ATOM     10  SAK 3M8 A 601      20.314  -7.316  -4.483  1.00  0.00    -0.127 SA
BRANCH  10  11
ATOM     11  CAL 3M8 A 601      20.099  -7.748  -2.778  1.00  0.00     0.094 C 
BRANCH  11  12
ATOM     12  CAM 3M8 A 601      18.650  -8.122  -2.379  1.00  0.00     0.147 C 
BRANCH  12  13
ATOM     13  SAN 3M8 A 601      18.265  -7.303  -0.973  1.00  0.00     0.081 S 
BRANCH  13  14
ATOM     14  OAQ 3M8 A 601      17.348  -8.135  -0.216  1.00  0.00    -0.308 OA
ATOM     15  H   3M8 A 601      17.846  -8.662   0.428  1.00  0.00     0.230 HD
ENDBRANCH  13  14
BRANCH  13  16
ATOM     16  OAP 3M8 A 601      17.587  -6.031  -1.366  1.00  0.00    -0.308 OA
ATOM     17  H   3M8 A 601      17.640  -5.919  -2.328  1.00  0.00     0.230 HD
ENDBRANCH  13  16
BRANCH  13  18
ATOM     18  OAO 3M8 A 601      19.449  -7.075  -0.162  1.00  0.00    -0.308 OA
ATOM     19  H   3M8 A 601      19.335  -6.264   0.357  1.00  0.00     0.230 HD
ENDBRANCH  13  18
ENDBRANCH  12  13
ENDBRANCH  11  12
ENDBRANCH  10  11
ENDBRANCH   1  10
BRANCH   3  20
ATOM     20  OAI 3M8 A 601      19.713  -2.802  -2.109  1.00  0.00    -0.361 OA
ATOM     21  H   3M8 A 601      19.648  -1.870  -2.180  1.00  0.00     0.217 HD
ENDBRANCH   3  20
TORSDOF 8
ENDMDL
MODEL 42
REMARK VINA RESULT:    -2.685      4.282      5.804
REMARK INTER + INTRA:          -4.000
REMARK INTER:                  -3.673
REMARK INTRA:                  -0.327
REMARK UNBOUND:                -0.374
REMARK  8 active torsions:
REMARK  status: ('A' for Active; 'I' for Inactive)
REMARK    1  A    between atoms: OAQ_1  and  SAN_2 
REMARK    2  A    between atoms: SAN_2  and  CAM_5 
REMARK    3  A    between atoms: SAN_2  and  OAP_4 
REMARK    4  A    between atoms: SAN_2  and  OAO_3 
REMARK    5  A    between atoms: CAM_5  and  CAL_6 
REMARK    6  A    between atoms: CAL_6  and  SAK_7 
REMARK    7  A    between atoms: SAK_7  and  CAB_8 
REMARK    8  A    between atoms: CAD_10  and  OAI_11 
ROOT
ATOM      1  CAB 3M8 A 601      18.385  -9.446  -2.893  1.00  0.00     0.027 A 
ATOM      2  CAC 3M8 A 601      18.862  -8.362  -2.116  1.00  0.00     0.056 A 
ATOM      3  CAD 3M8 A 601      19.084  -8.487  -0.750  1.00  0.00     0.070 A 
ATOM      4  CAE 3M8 A 601      18.844  -9.648  -0.002  1.00  0.00     0.080 A 
ATOM      5  CAF 3M8 A 601      18.276 -10.687  -0.790  1.00  0.00     0.141 A 
ATOM      6  FAH 3M8 A 601      18.055 -11.862  -0.187  1.00  0.00    -0.204 F 
ATOM      7  CAA 3M8 A 601      18.080 -10.616  -2.178  1.00  0.00     0.100 A 
ATOM      8  CAG 3M8 A 601      17.572 -11.673  -2.823  1.00  0.00     0.104 C 
ATOM      9  NAJ 3M8 A 601      17.150 -12.575  -3.368  1.00  0.00    -0.191 NA
ENDROOT
BRANCH   1  10
ATOM     10  SAK 3M8 A 601      18.239  -9.424  -4.611  1.00  0.00    -0.127 SA
BRANCH  10  11
ATOM     11  CAL 3M8 A 601      17.451  -7.838  -4.690  1.00  0.00     0.094 C 
BRANCH  11  12
ATOM     12  CAM 3M8 A 601      17.293  -7.259  -6.118  1.00  0.00     0.147 C 
BRANCH  12  13
ATOM     13  SAN 3M8 A 601      18.587  -6.244  -6.419  1.00  0.00     0.081 S 
BRANCH  13  14
ATOM     14  OAQ 3M8 A 601      19.573  -7.000  -7.169  1.00  0.00    -0.308 OA
ATOM     15  H   3M8 A 601      19.311  -7.036  -8.102  1.00  0.00     0.230 HD
ENDBRANCH  13  14
BRANCH  13  16
ATOM     16  OAP 3M8 A 601      19.157  -5.839  -5.098  1.00  0.00    -0.308 OA
ATOM     17  H   3M8 A 601      20.107  -5.668  -5.195  1.00  0.00     0.230 HD
ENDBRANCH  13  16
BRANCH  13  18
ATOM     18  OAO 3M8 A 601      18.179  -5.104  -7.222  1.00  0.00    -0.308 OA
ATOM     19  H   3M8 A 601      18.281  -4.290  -6.704  1.00  0.00     0.230 HD
ENDBRANCH  13  18
ENDBRANCH  12  13
ENDBRANCH  11  12
ENDBRANCH  10  11
ENDBRANCH   1  10
BRANCH   3  20
ATOM     20  OAI 3M8 A 601      19.673  -7.470  -0.083  1.00  0.00    -0.361 OA
ATOM     21  H   3M8 A 601      19.504  -6.584  -0.337  1.00  0.00     0.217 HD
ENDBRANCH   3  20
TORSDOF 8
ENDMDL
MODEL 43
REMARK VINA RESULT:    -2.580      3.006      3.555
REMARK INTER + INTRA:          -3.858
REMARK INTER:                  -3.159
REMARK INTRA:                  -0.699
REMARK UNBOUND:                -0.374
REMARK  8 active torsions:
REMARK  status: ('A' for Active; 'I' for Inactive)
REMARK    1  A    between atoms: OAQ_1  and  SAN_2 
REMARK    2  A    between atoms: SAN_2  and  CAM_5 
REMARK    3  A    between atoms: SAN_2  and  OAP_4 
REMARK    4  A    between atoms: SAN_2  and  OAO_3 
REMARK    5  A    between atoms: CAM_5  and  CAL_6 
REMARK    6  A    between atoms: CAL_6  and  SAK_7 
REMARK    7  A    between atoms: SAK_7  and  CAB_8 
REMARK    8  A    between atoms: CAD_10  and  OAI_11 
ROOT
ATOM      1  CAB 3M8 A 601      19.056  -8.538  -4.653  1.00  0.00     0.027 A 
ATOM      2  CAC 3M8 A 601      19.773  -7.379  -5.040  1.00  0.00     0.056 A 
ATOM      3  CAD 3M8 A 601      19.140  -6.299  -5.641  1.00  0.00     0.070 A 
ATOM      4  CAE 3M8 A 601      17.774  -6.242  -5.952  1.00  0.00     0.080 A 
ATOM      5  CAF 3M8 A 601      17.101  -7.455  -5.639  1.00  0.00     0.141 A 
ATOM      6  FAH 3M8 A 601      15.777  -7.492  -5.846  1.00  0.00    -0.204 F 
ATOM      7  CAA 3M8 A 601      17.693  -8.549  -4.990  1.00  0.00     0.100 A 
ATOM      8  CAG 3M8 A 601      16.950  -9.627  -4.711  1.00  0.00     0.104 C 
ATOM      9  NAJ 3M8 A 601      16.314 -10.535  -4.468  1.00  0.00    -0.191 NA
ENDROOT
BRANCH   1  10
ATOM     10  SAK 3M8 A 601      19.732  -9.848  -3.757  1.00  0.00    -0.127 SA
BRANCH  10  11
ATOM     11  CAL 3M8 A 601      19.252  -9.228  -2.168  1.00  0.00     0.094 C 
BRANCH  11  12
ATOM     12  CAM 3M8 A 601      19.091 -10.307  -1.068  1.00  0.00     0.147 C 
BRANCH  12  13
ATOM     13  SAN 3M8 A 601      17.584 -11.010  -1.241  1.00  0.00     0.081 S 
BRANCH  13  14
ATOM     14  OAQ 3M8 A 601      17.281 -11.709  -0.005  1.00  0.00    -0.308 OA
ATOM     15  H   3M8 A 601      17.221 -11.070   0.721  1.00  0.00     0.230 HD
ENDBRANCH  13  14
BRANCH  13  16
ATOM     16  OAP 3M8 A 601      17.670 -11.987  -2.368  1.00  0.00    -0.308 OA
ATOM     17  H   3M8 A 601      17.340 -11.574  -3.181  1.00  0.00     0.230 HD
ENDBRANCH  13  16
BRANCH  13  18
ATOM     18  OAO 3M8 A 601      16.560 -10.002  -1.456  1.00  0.00    -0.308 OA
ATOM     19  H   3M8 A 601      16.842  -9.164  -1.056  1.00  0.00     0.230 HD
ENDBRANCH  13  18
ENDBRANCH  12  13
ENDBRANCH  11  12
ENDBRANCH  10  11
ENDBRANCH   1  10
BRANCH   3  20
ATOM     20  OAI 3M8 A 601      19.840  -5.164  -5.862  1.00  0.00    -0.361 OA
ATOM     21  H   3M8 A 601      20.572  -4.953  -5.317  1.00  0.00     0.217 HD
ENDBRANCH   3  20
TORSDOF 8
ENDMDL
MODEL 44
REMARK VINA RESULT:    -2.531      2.682      3.296
REMARK INTER + INTRA:          -3.792
REMARK INTER:                  -2.978
REMARK INTRA:                  -0.815
REMARK UNBOUND:                -0.374
REMARK  8 active torsions:
REMARK  status: ('A' for Active; 'I' for Inactive)
REMARK    1  A    between atoms: OAQ_1  and  SAN_2 
REMARK    2  A    between atoms: SAN_2  and  CAM_5 
REMARK    3  A    between atoms: SAN_2  and  OAP_4 
REMARK    4  A    between atoms: SAN_2  and  OAO_3 
REMARK    5  A    between atoms: CAM_5  and  CAL_6 
REMARK    6  A    between atoms: CAL_6  and  SAK_7 
REMARK    7  A    between atoms: SAK_7  and  CAB_8 
REMARK    8  A    between atoms: CAD_10  and  OAI_11 
ROOT
ATOM      1  CAB 3M8 A 601      17.840  -7.011  -5.407  1.00  0.00     0.027 A 
ATOM      2  CAC 3M8 A 601      17.060  -6.222  -6.287  1.00  0.00     0.056 A 
ATOM      3  CAD 3M8 A 601      17.058  -4.835  -6.214  1.00  0.00     0.070 A 
ATOM      4  CAE 3M8 A 601      17.776  -4.081  -5.277  1.00  0.00     0.080 A 
ATOM      5  CAF 3M8 A 601      18.473  -4.902  -4.347  1.00  0.00     0.141 A 
ATOM      6  FAH 3M8 A 601      19.238  -4.284  -3.437  1.00  0.00    -0.204 F 
ATOM      7  CAA 3M8 A 601      18.538  -6.302  -4.415  1.00  0.00     0.100 A 
ATOM      8  CAG 3M8 A 601      19.258  -6.970  -3.506  1.00  0.00     0.104 C 
ATOM      9  NAJ 3M8 A 601      19.877  -7.532  -2.739  1.00  0.00    -0.191 NA
ENDROOT
BRANCH   1  10
ATOM     10  SAK 3M8 A 601      18.026  -8.720  -5.535  1.00  0.00    -0.127 SA
BRANCH  10  11
ATOM     11  CAL 3M8 A 601      16.589  -9.116  -4.577  1.00  0.00     0.094 C 
BRANCH  11  12
ATOM     12  CAM 3M8 A 601      16.645 -10.484  -3.852  1.00  0.00     0.147 C 
BRANCH  12  13
ATOM     13  SAN 3M8 A 601      17.495 -10.287  -2.426  1.00  0.00     0.081 S 
BRANCH  13  14
ATOM     14  OAQ 3M8 A 601      17.205  -8.956  -1.922  1.00  0.00    -0.308 OA
ATOM     15  H   3M8 A 601      18.004  -8.583  -1.518  1.00  0.00     0.230 HD
ENDBRANCH  13  14
BRANCH  13  16
ATOM     16  OAP 3M8 A 601      18.949 -10.400  -2.751  1.00  0.00    -0.308 OA
ATOM     17  H   3M8 A 601      19.442 -10.637  -1.949  1.00  0.00     0.230 HD
ENDBRANCH  13  16
BRANCH  13  18
ATOM     18  OAO 3M8 A 601      17.070 -11.254  -1.429  1.00  0.00    -0.308 OA
ATOM     19  H   3M8 A 601      16.102 -11.310  -1.424  1.00  0.00     0.230 HD
ENDBRANCH  13  18
ENDBRANCH  12  13
ENDBRANCH  11  12
ENDBRANCH  10  11
ENDBRANCH   1  10
BRANCH   3  20
ATOM     20  OAI 3M8 A 601      16.409  -4.126  -7.165  1.00  0.00    -0.361 OA
ATOM     21  H   3M8 A 601      15.474  -4.144  -7.206  1.00  0.00     0.217 HD
ENDBRANCH   3  20
TORSDOF 8
ENDMDL
MODEL 45
REMARK VINA RESULT:    -2.518      3.710      4.867
REMARK INTER + INTRA:          -3.775
REMARK INTER:                  -3.122
REMARK INTRA:                  -0.652
REMARK UNBOUND:                -0.374
REMARK  8 active torsions:
REMARK  status: ('A' for Active; 'I' for Inactive)
REMARK    1  A    between atoms: OAQ_1  and  SAN_2 
REMARK    2  A    between atoms: SAN_2  and  CAM_5 
REMARK    3  A    between atoms: SAN_2  and  OAP_4 
REMARK    4  A    between atoms: SAN_2  and  OAO_3 
REMARK    5  A    between atoms: CAM_5  and  CAL_6 
REMARK    6  A    between atoms: CAL_6  and  SAK_7 
REMARK    7  A    between atoms: SAK_7  and  CAB_8 
REMARK    8  A    between atoms: CAD_10  and  OAI_11 
ROOT
ATOM      1  CAB 3M8 A 601      19.330  -5.425  -4.239  1.00  0.00     0.027 A 
ATOM      2  CAC 3M8 A 601      19.540  -5.080  -2.882  1.00  0.00     0.056 A 
ATOM      3  CAD 3M8 A 601      18.860  -4.027  -2.284  1.00  0.00     0.070 A 
ATOM      4  CAE 3M8 A 601      17.942  -3.193  -2.937  1.00  0.00     0.080 A 
ATOM      5  CAF 3M8 A 601      17.824  -3.502  -4.320  1.00  0.00     0.141 A 
ATOM      6  FAH 3M8 A 601      16.931  -2.801  -5.031  1.00  0.00    -0.204 F 
ATOM      7  CAA 3M8 A 601      18.457  -4.585  -4.950  1.00  0.00     0.100 A 
ATOM      8  CAG 3M8 A 601      18.240  -4.803  -6.253  1.00  0.00     0.104 C 
ATOM      9  NAJ 3M8 A 601      18.048  -4.990  -7.355  1.00  0.00    -0.191 NA
ENDROOT
BRANCH   1  10
ATOM     10  SAK 3M8 A 601      20.007  -6.812  -5.009  1.00  0.00    -0.127 SA
BRANCH  10  11
ATOM     11  CAL 3M8 A 601      19.399  -7.975  -3.818  1.00  0.00     0.094 C 
BRANCH  11  12
ATOM     12  CAM 3M8 A 601      18.277  -8.911  -4.333  1.00  0.00     0.147 C 
BRANCH  12  13
ATOM     13  SAN 3M8 A 601      16.805  -8.175  -4.039  1.00  0.00     0.081 S 
BRANCH  13  14
ATOM     14  OAQ 3M8 A 601      17.016  -7.160  -3.022  1.00  0.00    -0.308 OA
ATOM     15  H   3M8 A 601      16.161  -6.884  -2.659  1.00  0.00     0.230 HD
ENDBRANCH  13  14
BRANCH  13  16
ATOM     16  OAP 3M8 A 601      15.874  -9.223  -3.522  1.00  0.00    -0.308 OA
ATOM     17  H   3M8 A 601      16.343 -10.070  -3.459  1.00  0.00     0.230 HD
ENDBRANCH  13  16
BRANCH  13  18
ATOM     18  OAO 3M8 A 601      16.300  -7.522  -5.235  1.00  0.00    -0.308 OA
ATOM     19  H   3M8 A 601      15.704  -6.800  -4.982  1.00  0.00     0.230 HD
ENDBRANCH  13  18
ENDBRANCH  12  13
ENDBRANCH  11  12
ENDBRANCH  10  11
ENDBRANCH   1  10
BRANCH   3  20
ATOM     20  OAI 3M8 A 601      18.990  -3.829  -0.953  1.00  0.00    -0.361 OA
ATOM     21  H   3M8 A 601      19.839  -3.849  -0.558  1.00  0.00     0.217 HD
ENDBRANCH   3  20
TORSDOF 8
ENDMDL
MODEL 46
REMARK VINA RESULT:    -2.292      3.385      4.242
REMARK INTER + INTRA:          -3.469
REMARK INTER:                  -2.936
REMARK INTRA:                  -0.533
REMARK UNBOUND:                -0.374
REMARK  8 active torsions:
REMARK  status: ('A' for Active; 'I' for Inactive)
REMARK    1  A    between atoms: OAQ_1  and  SAN_2 
REMARK    2  A    between atoms: SAN_2  and  CAM_5 
REMARK    3  A    between atoms: SAN_2  and  OAP_4 
REMARK    4  A    between atoms: SAN_2  and  OAO_3 
REMARK    5  A    between atoms: CAM_5  and  CAL_6 
REMARK    6  A    between atoms: CAL_6  and  SAK_7 
REMARK    7  A    between atoms: SAK_7  and  CAB_8 
REMARK    8  A    between atoms: CAD_10  and  OAI_11 
ROOT
ATOM      1  CAB 3M8 A 601      19.867  -7.030  -2.109  1.00  0.00     0.027 A 
ATOM      2  CAC 3M8 A 601      19.628  -5.924  -1.258  1.00  0.00     0.056 A 
ATOM      3  CAD 3M8 A 601      19.003  -4.772  -1.718  1.00  0.00     0.070 A 
ATOM      4  CAE 3M8 A 601      18.576  -4.564  -3.037  1.00  0.00     0.080 A 
ATOM      5  CAF 3M8 A 601      18.916  -5.652  -3.889  1.00  0.00     0.141 A 
ATOM      6  FAH 3M8 A 601      18.507  -5.583  -5.163  1.00  0.00    -0.204 F 
ATOM      7  CAA 3M8 A 601      19.504  -6.849  -3.454  1.00  0.00     0.100 A 
ATOM      8  CAG 3M8 A 601      19.743  -7.822  -4.342  1.00  0.00     0.104 C 
ATOM      9  NAJ 3M8 A 601      19.935  -8.648  -5.096  1.00  0.00    -0.191 NA
ENDROOT
BRANCH   1  10
ATOM     10  SAK 3M8 A 601      20.486  -8.551  -1.582  1.00  0.00    -0.127 SA
BRANCH  10  11
ATOM     11  CAL 3M8 A 601      18.906  -9.234  -1.157  1.00  0.00     0.094 C 
BRANCH  11  12
ATOM     12  CAM 3M8 A 601      18.858 -10.781  -1.105  1.00  0.00     0.147 C 
BRANCH  12  13
ATOM     13  SAN 3M8 A 601      18.119 -11.330  -2.500  1.00  0.00     0.081 S 
BRANCH  13  14
ATOM     14  OAQ 3M8 A 601      18.160 -12.782  -2.477  1.00  0.00    -0.308 OA
ATOM     15  H   3M8 A 601      18.151 -13.120  -3.385  1.00  0.00     0.230 HD
ENDBRANCH  13  14
BRANCH  13  16
ATOM     16  OAP 3M8 A 601      18.913 -10.821  -3.659  1.00  0.00    -0.308 OA
ATOM     17  H   3M8 A 601      18.692 -11.334  -4.453  1.00  0.00     0.230 HD
ENDBRANCH  13  16
BRANCH  13  18
ATOM     18  OAO 3M8 A 601      16.729 -10.914  -2.552  1.00  0.00    -0.308 OA
ATOM     19  H   3M8 A 601      16.541 -10.320  -1.808  1.00  0.00     0.230 HD
ENDBRANCH  13  18
ENDBRANCH  12  13
ENDBRANCH  11  12
ENDBRANCH  10  11
ENDBRANCH   1  10
BRANCH   3  20
ATOM     20  OAI 3M8 A 601      18.671  -3.804  -0.835  1.00  0.00    -0.361 OA
ATOM     21  H   3M8 A 601      18.776  -2.902  -1.067  1.00  0.00     0.217 HD
ENDBRANCH   3  20
TORSDOF 8
ENDMDL
MODEL 47
REMARK VINA RESULT:    -2.267      4.466      5.408
REMARK INTER + INTRA:          -3.436
REMARK INTER:                  -3.178
REMARK INTRA:                  -0.258
REMARK UNBOUND:                -0.374
REMARK  8 active torsions:
REMARK  status: ('A' for Active; 'I' for Inactive)
REMARK    1  A    between atoms: OAQ_1  and  SAN_2 
REMARK    2  A    between atoms: SAN_2  and  CAM_5 
REMARK    3  A    between atoms: SAN_2  and  OAP_4 
REMARK    4  A    between atoms: SAN_2  and  OAO_3 
REMARK    5  A    between atoms: CAM_5  and  CAL_6 
REMARK    6  A    between atoms: CAL_6  and  SAK_7 
REMARK    7  A    between atoms: SAK_7  and  CAB_8 
REMARK    8  A    between atoms: CAD_10  and  OAI_11 
ROOT
ATOM      1  CAB 3M8 A 601      19.284  -5.904  -5.377  1.00  0.00     0.027 A 
ATOM      2  CAC 3M8 A 601      18.212  -6.825  -5.288  1.00  0.00     0.056 A 
ATOM      3  CAD 3M8 A 601      17.095  -6.724  -6.108  1.00  0.00     0.070 A 
ATOM      4  CAE 3M8 A 601      16.891  -5.721  -7.064  1.00  0.00     0.080 A 
ATOM      5  CAF 3M8 A 601      17.938  -4.758  -7.063  1.00  0.00     0.141 A 
ATOM      6  FAH 3M8 A 601      17.872  -3.780  -7.978  1.00  0.00    -0.204 F 
ATOM      7  CAA 3M8 A 601      19.102  -4.849  -6.286  1.00  0.00     0.100 A 
ATOM      8  CAG 3M8 A 601      20.041  -3.901  -6.397  1.00  0.00     0.104 C 
ATOM      9  NAJ 3M8 A 601      20.839  -3.101  -6.501  1.00  0.00    -0.191 NA
ENDROOT
BRANCH   1  10
ATOM     10  SAK 3M8 A 601      20.771  -6.052  -4.516  1.00  0.00    -0.127 SA
BRANCH  10  11
ATOM     11  CAL 3M8 A 601      20.165  -7.233  -3.341  1.00  0.00     0.094 C 
BRANCH  11  12
ATOM     12  CAM 3M8 A 601      20.160  -6.745  -1.870  1.00  0.00     0.147 C 
BRANCH  12  13
ATOM     13  SAN 3M8 A 601      18.583  -6.770  -1.315  1.00  0.00     0.081 S 
BRANCH  13  14
ATOM     14  OAQ 3M8 A 601      18.165  -5.393  -1.117  1.00  0.00    -0.308 OA
ATOM     15  H   3M8 A 601      17.377  -5.215  -1.654  1.00  0.00     0.230 HD
ENDBRANCH  13  14
BRANCH  13  16
ATOM     16  OAP 3M8 A 601      18.578  -7.493  -0.008  1.00  0.00    -0.308 OA
ATOM     17  H   3M8 A 601      19.119  -8.295  -0.080  1.00  0.00     0.230 HD
ENDBRANCH  13  16
BRANCH  13  18
ATOM     18  OAO 3M8 A 601      17.696  -7.378  -2.292  1.00  0.00    -0.308 OA
ATOM     19  H   3M8 A 601      17.335  -8.204  -1.932  1.00  0.00     0.230 HD
ENDBRANCH  13  18
ENDBRANCH  12  13
ENDBRANCH  11  12
ENDBRANCH  10  11
ENDBRANCH   1  10
BRANCH   3  20
ATOM     20  OAI 3M8 A 601      16.167  -7.707  -6.081  1.00  0.00    -0.361 OA
ATOM     21  H   3M8 A 601      15.344  -7.585  -6.511  1.00  0.00     0.217 HD
ENDBRANCH   3  20
TORSDOF 8
ENDMDL
