MODEL 1
REMARK VINA RESULT:    -4.387      0.000      0.000
REMARK INTER + INTRA:          -5.686
REMARK INTER:                  -5.412
REMARK INTRA:                  -0.273
REMARK UNBOUND:                -0.273
REMARK  5 active torsions:
REMARK  status: ('A' for Active; 'I' for Inactive)
REMARK    1  A    between atoms: C_5  and  C_6 
REMARK    2  A    between atoms: C_6  and  C_7 
REMARK    3  A    between atoms: C_7  and  O_18 
REMARK    4  A    between atoms: N_11  and  C_16 
REMARK    5  A    between atoms: C_14  and  C_17 
ROOT
HETATM    1  C   HJK A 301      -0.150  -4.584 -26.625  1.00  0.00     0.106 A 
HETATM    2  C   HJK A 301      -0.942  -2.625 -26.302  1.00  0.00     0.182 A 
HETATM    3  C   HJK A 301       0.559  -3.697 -27.445  1.00  0.00     0.151 A 
HETATM    4  N   HJK A 301       1.142  -6.311 -27.571  1.00  0.00    -0.189 N 
ATOM      5  HN  HJK A 301       1.384  -7.296 -27.682  1.00  0.00     0.184 HD
HETATM    6  N   HJK A 301      -1.086  -3.867 -25.892  1.00  0.00    -0.347 N 
HETATM    7  C   HJK A 301       1.777  -5.374 -28.309  1.00  0.00     0.678 A 
HETATM    8  C   HJK A 301       0.191  -5.951 -26.694  1.00  0.00     0.090 A 
HETATM    9  N   HJK A 301       0.049  -2.457 -27.222  1.00  0.00    -0.336 N 
ATOM     10  HN  HJK A 301       0.346  -1.583 -27.654  1.00  0.00     0.168 HD
HETATM   11  N   HJK A 301       1.530  -4.041 -28.291  1.00  0.00    -0.174 N 
ATOM     12  HN  HJK A 301       2.037  -3.369 -28.868  1.00  0.00     0.186 HD
HETATM   13  H   HJK A 301      -1.716  -4.210 -25.217  1.00  0.00     0.167 HD
ENDROOT
BRANCH   8  14
HETATM   14  C   HJK A 301      -0.389  -7.096 -25.959  1.00  0.00    -0.006 C 
HETATM   15  C   HJK A 301      -0.413  -8.378 -26.504  1.00  0.00     0.014 C 
HETATM   16  C   HJK A 301      -0.965  -9.431 -25.784  1.00  0.00     0.001 C 
HETATM   17  C   HJK A 301      -1.438  -9.201 -24.503  1.00  0.00     0.007 C 
HETATM   18  C   HJK A 301      -1.508  -7.920 -23.971  1.00  0.00    -0.048 C 
HETATM   19  C   HJK A 301      -0.922  -6.903 -24.687  1.00  0.00     0.021 C 
BRANCH  18  20
HETATM   20  C   HJK A 301      -2.015  -7.628 -22.564  1.00  0.00     0.148 C 
BRANCH  20  21
HETATM   21  C   HJK A 301      -1.916  -8.705 -21.475  1.00  0.00     0.143 C 
HETATM   22  O   HJK A 301      -2.819  -9.585 -21.436  1.00  0.00    -0.650 OA
BRANCH  21  23
HETATM   23  O   HJK A 301      -1.127  -8.527 -20.578  1.00  0.00    -0.776 OA
HETATM   24  H   HJK A 301      -0.258  -8.872 -20.643  1.00  0.00     0.167 HD
ENDBRANCH  21  23
ENDBRANCH  20  21
ENDBRANCH  18  20
ENDBRANCH   8  14
BRANCH   7  25
HETATM   25  N   HJK A 301       2.705  -5.844 -29.155  1.00  0.00    -0.234 N 
HETATM   26  H   HJK A 301       2.672  -5.598 -30.107  1.00  0.00     0.174 HD
HETATM   27  H   HJK A 301       3.419  -6.435 -28.823  1.00  0.00     0.174 HD
ENDBRANCH   7  25
TORSDOF 5
ENDMDL
MODEL 2
REMARK VINA RESULT:    -4.339      4.252      6.650
REMARK INTER + INTRA:          -5.627
REMARK INTER:                  -5.254
REMARK INTRA:                  -0.374
REMARK UNBOUND:                -0.273
REMARK  5 active torsions:
REMARK  status: ('A' for Active; 'I' for Inactive)
REMARK    1  A    between atoms: C_5  and  C_6 
REMARK    2  A    between atoms: C_6  and  C_7 
REMARK    3  A    between atoms: C_7  and  O_18 
REMARK    4  A    between atoms: N_11  and  C_16 
REMARK    5  A    between atoms: C_14  and  C_17 
ROOT
HETATM    1  C   HJK A 301      -0.821  -8.988 -23.239  1.00  0.00     0.106 A 
HETATM    2  C   HJK A 301      -1.527 -10.866 -22.501  1.00  0.00     0.182 A 
HETATM    3  C   HJK A 301      -1.672  -8.728 -22.158  1.00  0.00     0.151 A 
HETATM    4  N   HJK A 301      -0.601  -6.656 -23.481  1.00  0.00    -0.189 N 
ATOM      5  HN  HJK A 301      -0.247  -5.831 -23.965  1.00  0.00     0.184 HD
HETATM    6  N   HJK A 301      -0.731 -10.362 -23.419  1.00  0.00    -0.347 N 
HETATM    7  C   HJK A 301      -1.422  -6.512 -22.417  1.00  0.00     0.678 A 
HETATM    8  C   HJK A 301      -0.252  -7.882 -23.904  1.00  0.00     0.090 A 
HETATM    9  N   HJK A 301      -2.106  -9.930 -21.697  1.00  0.00    -0.336 N 
ATOM     10  HN  HJK A 301      -2.734 -10.098 -20.911  1.00  0.00     0.168 HD
HETATM   11  N   HJK A 301      -1.994  -7.515 -21.707  1.00  0.00    -0.174 N 
ATOM     12  HN  HJK A 301      -2.609  -7.358 -20.909  1.00  0.00     0.186 HD
HETATM   13  H   HJK A 301      -0.194 -10.850 -24.085  1.00  0.00     0.167 HD
ENDROOT
BRANCH   8  14
HETATM   14  C   HJK A 301       0.662  -7.860 -25.066  1.00  0.00    -0.006 C 
HETATM   15  C   HJK A 301       1.686  -8.794 -25.208  1.00  0.00     0.014 C 
HETATM   16  C   HJK A 301       2.525  -8.745 -26.315  1.00  0.00     0.001 C 
HETATM   17  C   HJK A 301       2.297  -7.794 -27.297  1.00  0.00     0.007 C 
HETATM   18  C   HJK A 301       1.342  -6.797 -27.138  1.00  0.00    -0.048 C 
HETATM   19  C   HJK A 301       0.502  -6.892 -26.055  1.00  0.00     0.021 C 
BRANCH  18  20
HETATM   20  C   HJK A 301       1.057  -5.741 -28.198  1.00  0.00     0.148 C 
BRANCH  20  21
HETATM   21  C   HJK A 301       1.207  -4.252 -27.856  1.00  0.00     0.143 C 
HETATM   22  O   HJK A 301       0.174  -3.628 -27.488  1.00  0.00    -0.650 OA
BRANCH  21  23
HETATM   23  O   HJK A 301       2.234  -3.701 -28.176  1.00  0.00    -0.776 OA
HETATM   24  H   HJK A 301       2.536  -2.957 -27.694  1.00  0.00     0.167 HD
ENDBRANCH  21  23
ENDBRANCH  20  21
ENDBRANCH  18  20
ENDBRANCH   8  14
BRANCH   7  25
HETATM   25  N   HJK A 301      -1.708  -5.245 -22.083  1.00  0.00    -0.234 N 
HETATM   26  H   HJK A 301      -1.825  -5.000 -21.136  1.00  0.00     0.174 HD
HETATM   27  H   HJK A 301      -1.800  -4.560 -22.784  1.00  0.00     0.174 HD
ENDBRANCH   7  25
TORSDOF 5
ENDMDL
MODEL 3
REMARK VINA RESULT:    -4.285      1.098      2.732
REMARK INTER + INTRA:          -5.561
REMARK INTER:                  -5.236
REMARK INTRA:                  -0.324
REMARK UNBOUND:                -0.273
REMARK  5 active torsions:
REMARK  status: ('A' for Active; 'I' for Inactive)
REMARK    1  A    between atoms: C_5  and  C_6 
REMARK    2  A    between atoms: C_6  and  C_7 
REMARK    3  A    between atoms: C_7  and  O_18 
REMARK    4  A    between atoms: N_11  and  C_16 
REMARK    5  A    between atoms: C_14  and  C_17 
ROOT
HETATM    1  C   HJK A 301       1.579  -6.876 -27.339  1.00  0.00     0.106 A 
HETATM    2  C   HJK A 301       3.392  -7.419 -28.332  1.00  0.00     0.182 A 
HETATM    3  C   HJK A 301       2.044  -5.746 -28.023  1.00  0.00     0.151 A 
HETATM    4  N   HJK A 301      -0.179  -5.527 -26.540  1.00  0.00    -0.189 N 
ATOM      5  HN  HJK A 301      -1.011  -5.379 -25.970  1.00  0.00     0.184 HD
HETATM    6  N   HJK A 301       2.449  -7.933 -27.574  1.00  0.00    -0.347 N 
HETATM    7  C   HJK A 301       0.343  -4.502 -27.249  1.00  0.00     0.678 A 
HETATM    8  C   HJK A 301       0.395  -6.740 -26.584  1.00  0.00     0.090 A 
HETATM    9  N   HJK A 301       3.192  -6.110 -28.654  1.00  0.00    -0.336 N 
ATOM     10  HN  HJK A 301       3.781  -5.524 -29.246  1.00  0.00     0.168 HD
HETATM   11  N   HJK A 301       1.460  -4.547 -28.015  1.00  0.00    -0.174 N 
ATOM     12  HN  HJK A 301       1.818  -3.745 -28.534  1.00  0.00     0.186 HD
HETATM   13  H   HJK A 301       2.376  -8.858 -27.246  1.00  0.00     0.167 HD
ENDROOT
BRANCH   8  14
HETATM   14  C   HJK A 301      -0.311  -7.750 -25.766  1.00  0.00    -0.006 C 
HETATM   15  C   HJK A 301      -0.554  -9.037 -26.242  1.00  0.00     0.014 C 
HETATM   16  C   HJK A 301      -1.218  -9.962 -25.445  1.00  0.00     0.001 C 
HETATM   17  C   HJK A 301      -1.585  -9.605 -24.158  1.00  0.00     0.007 C 
HETATM   18  C   HJK A 301      -1.437  -8.305 -23.690  1.00  0.00    -0.048 C 
HETATM   19  C   HJK A 301      -0.744  -7.423 -24.484  1.00  0.00     0.021 C 
BRANCH  18  20
HETATM   20  C   HJK A 301      -1.822  -7.878 -22.280  1.00  0.00     0.148 C 
BRANCH  20  21
HETATM   21  C   HJK A 301      -1.854  -8.912 -21.147  1.00  0.00     0.143 C 
HETATM   22  O   HJK A 301      -2.825  -9.717 -21.113  1.00  0.00    -0.650 OA
BRANCH  21  23
HETATM   23  O   HJK A 301      -1.089  -8.759 -20.224  1.00  0.00    -0.776 OA
HETATM   24  H   HJK A 301      -0.562  -9.476 -19.929  1.00  0.00     0.167 HD
ENDBRANCH  21  23
ENDBRANCH  20  21
ENDBRANCH  18  20
ENDBRANCH   8  14
BRANCH   7  25
HETATM   25  N   HJK A 301      -0.307  -3.335 -27.130  1.00  0.00    -0.234 N 
HETATM   26  H   HJK A 301       0.111  -2.586 -26.647  1.00  0.00     0.174 HD
HETATM   27  H   HJK A 301      -1.202  -3.228 -27.526  1.00  0.00     0.174 HD
ENDBRANCH   7  25
TORSDOF 5
ENDMDL
MODEL 4
REMARK VINA RESULT:    -4.217      4.003      6.136
REMARK INTER + INTRA:          -5.476
REMARK INTER:                  -5.056
REMARK INTRA:                  -0.420
REMARK UNBOUND:                -0.273
REMARK  5 active torsions:
REMARK  status: ('A' for Active; 'I' for Inactive)
REMARK    1  A    between atoms: C_5  and  C_6 
REMARK    2  A    between atoms: C_6  and  C_7 
REMARK    3  A    between atoms: C_7  and  O_18 
REMARK    4  A    between atoms: N_11  and  C_16 
REMARK    5  A    between atoms: C_14  and  C_17 
ROOT
HETATM    1  C   HJK A 301      -0.770  -7.433 -24.082  1.00  0.00     0.106 A 
HETATM    2  C   HJK A 301      -1.349  -6.489 -22.254  1.00  0.00     0.182 A 
HETATM    3  C   HJK A 301      -1.787  -8.206 -23.507  1.00  0.00     0.151 A 
HETATM    4  N   HJK A 301      -0.667  -9.048 -25.793  1.00  0.00    -0.189 N 
ATOM      5  HN  HJK A 301      -0.258  -9.431 -26.645  1.00  0.00     0.184 HD
HETATM    6  N   HJK A 301      -0.529  -6.333 -23.270  1.00  0.00    -0.347 N 
HETATM    7  C   HJK A 301      -1.663  -9.713 -25.166  1.00  0.00     0.678 A 
HETATM    8  C   HJK A 301      -0.213  -7.886 -25.296  1.00  0.00     0.090 A 
HETATM    9  N   HJK A 301      -2.147  -7.589 -22.351  1.00  0.00    -0.336 N 
ATOM     10  HN  HJK A 301      -2.867  -7.888 -21.693  1.00  0.00     0.168 HD
HETATM   11  N   HJK A 301      -2.269  -9.341 -24.012  1.00  0.00    -0.174 N 
ATOM     12  HN  HJK A 301      -3.019  -9.876 -23.574  1.00  0.00     0.186 HD
HETATM   13  H   HJK A 301       0.112  -5.600 -23.421  1.00  0.00     0.167 HD
ENDROOT
BRANCH   8  14
HETATM   14  C   HJK A 301       0.864  -7.284 -26.111  1.00  0.00    -0.006 C 
HETATM   15  C   HJK A 301       2.118  -7.881 -26.222  1.00  0.00     0.014 C 
HETATM   16  C   HJK A 301       3.106  -7.289 -26.998  1.00  0.00     0.001 C 
HETATM   17  C   HJK A 301       2.812  -6.131 -27.701  1.00  0.00     0.007 C 
HETATM   18  C   HJK A 301       1.603  -5.467 -27.539  1.00  0.00    -0.048 C 
HETATM   19  C   HJK A 301       0.631  -6.094 -26.796  1.00  0.00     0.021 C 
BRANCH  18  20
HETATM   20  C   HJK A 301       1.241  -4.198 -28.299  1.00  0.00     0.148 C 
BRANCH  20  21
HETATM   21  C   HJK A 301       0.725  -2.969 -27.538  1.00  0.00     0.143 C 
HETATM   22  O   HJK A 301      -0.516  -2.889 -27.325  1.00  0.00    -0.650 OA
BRANCH  21  23
HETATM   23  O   HJK A 301       1.482  -2.039 -27.390  1.00  0.00    -0.776 OA
HETATM   24  H   HJK A 301       2.142  -2.075 -26.726  1.00  0.00     0.167 HD
ENDBRANCH  21  23
ENDBRANCH  20  21
ENDBRANCH  18  20
ENDBRANCH   8  14
BRANCH   7  25
HETATM   25  N   HJK A 301      -2.036 -10.864 -25.746  1.00  0.00    -0.234 N 
HETATM   26  H   HJK A 301      -1.937 -10.979 -26.718  1.00  0.00     0.174 HD
HETATM   27  H   HJK A 301      -2.408 -11.592 -25.198  1.00  0.00     0.174 HD
ENDBRANCH   7  25
TORSDOF 5
ENDMDL
MODEL 5
REMARK VINA RESULT:    -4.204      4.254      6.137
REMARK INTER + INTRA:          -5.460
REMARK INTER:                  -5.190
REMARK INTRA:                  -0.270
REMARK UNBOUND:                -0.273
REMARK  5 active torsions:
REMARK  status: ('A' for Active; 'I' for Inactive)
REMARK    1  A    between atoms: C_5  and  C_6 
REMARK    2  A    between atoms: C_6  and  C_7 
REMARK    3  A    between atoms: C_7  and  O_18 
REMARK    4  A    between atoms: N_11  and  C_16 
REMARK    5  A    between atoms: C_14  and  C_17 
ROOT
HETATM    1  C   HJK A 301      -0.287  -7.126 -23.801  1.00  0.00     0.106 A 
HETATM    2  C   HJK A 301      -0.880  -5.260 -22.944  1.00  0.00     0.182 A 
HETATM    3  C   HJK A 301      -1.288  -7.390 -22.858  1.00  0.00     0.151 A 
HETATM    4  N   HJK A 301      -0.157  -9.452 -24.145  1.00  0.00    -0.189 N 
ATOM      5  HN  HJK A 301       0.258 -10.275 -24.581  1.00  0.00     0.184 HD
HETATM    6  N   HJK A 301      -0.065  -5.756 -23.849  1.00  0.00    -0.347 N 
HETATM    7  C   HJK A 301      -1.139  -9.599 -23.229  1.00  0.00     0.678 A 
HETATM    8  C   HJK A 301       0.276  -8.227 -24.481  1.00  0.00     0.090 A 
HETATM    9  N   HJK A 301      -1.658  -6.194 -22.329  1.00  0.00    -0.336 N 
ATOM     10  HN  HJK A 301      -2.371  -6.030 -21.618  1.00  0.00     0.168 HD
HETATM   11  N   HJK A 301      -1.750  -8.601 -22.545  1.00  0.00    -0.174 N 
ATOM     12  HN  HJK A 301      -2.490  -8.759 -21.860  1.00  0.00     0.186 HD
HETATM   13  H   HJK A 301       0.562  -5.266 -24.429  1.00  0.00     0.167 HD
ENDROOT
BRANCH   8  14
HETATM   14  C   HJK A 301       1.340  -8.245 -25.508  1.00  0.00    -0.006 C 
HETATM   15  C   HJK A 301       2.342  -9.213 -25.505  1.00  0.00     0.014 C 
HETATM   16  C   HJK A 301       3.326  -9.201 -26.487  1.00  0.00     0.001 C 
HETATM   17  C   HJK A 301       3.265  -8.252 -27.494  1.00  0.00     0.007 C 
HETATM   18  C   HJK A 301       2.332  -7.223 -27.471  1.00  0.00    -0.048 C 
HETATM   19  C   HJK A 301       1.349  -7.280 -26.512  1.00  0.00     0.021 C 
BRANCH  18  20
HETATM   20  C   HJK A 301       2.230  -6.166 -28.564  1.00  0.00     0.148 C 
BRANCH  20  21
HETATM   21  C   HJK A 301       1.515  -4.838 -28.282  1.00  0.00     0.143 C 
HETATM   22  O   HJK A 301       0.253  -4.836 -28.295  1.00  0.00    -0.650 OA
BRANCH  21  23
HETATM   23  O   HJK A 301       2.177  -3.828 -28.296  1.00  0.00    -0.776 OA
HETATM   24  H   HJK A 301       2.612  -3.542 -27.517  1.00  0.00     0.167 HD
ENDBRANCH  21  23
ENDBRANCH  20  21
ENDBRANCH  18  20
ENDBRANCH   8  14
BRANCH   7  25
HETATM   25  N   HJK A 301      -1.492 -10.866 -22.965  1.00  0.00    -0.234 N 
HETATM   26  H   HJK A 301      -1.828 -11.108 -22.072  1.00  0.00     0.174 HD
HETATM   27  H   HJK A 301      -1.414 -11.554 -23.665  1.00  0.00     0.174 HD
ENDBRANCH   7  25
TORSDOF 5
ENDMDL
MODEL 6
REMARK VINA RESULT:    -4.138      3.848      5.950
REMARK INTER + INTRA:          -5.379
REMARK INTER:                  -5.162
REMARK INTRA:                  -0.217
REMARK UNBOUND:                -0.273
REMARK  5 active torsions:
REMARK  status: ('A' for Active; 'I' for Inactive)
REMARK    1  A    between atoms: C_5  and  C_6 
REMARK    2  A    between atoms: C_6  and  C_7 
REMARK    3  A    between atoms: C_7  and  O_18 
REMARK    4  A    between atoms: N_11  and  C_16 
REMARK    5  A    between atoms: C_14  and  C_17 
ROOT
HETATM    1  C   HJK A 301      -0.632  -8.229 -24.340  1.00  0.00     0.106 A 
HETATM    2  C   HJK A 301      -2.411  -8.159 -23.157  1.00  0.00     0.182 A 
HETATM    3  C   HJK A 301      -0.638  -9.360 -23.514  1.00  0.00     0.151 A 
HETATM    4  N   HJK A 301       1.462  -8.960 -25.132  1.00  0.00    -0.189 N 
ATOM      5  HN  HJK A 301       2.298  -8.844 -25.704  1.00  0.00     0.184 HD
HETATM    6  N   HJK A 301      -1.787  -7.494 -24.105  1.00  0.00    -0.347 N 
HETATM    7  C   HJK A 301       1.353 -10.026 -24.308  1.00  0.00     0.678 A 
HETATM    8  C   HJK A 301       0.474  -8.054 -25.198  1.00  0.00     0.090 A 
HETATM    9  N   HJK A 301      -1.778  -9.303 -22.774  1.00  0.00    -0.336 N 
ATOM     10  HN  HJK A 301      -2.093  -9.978 -22.077  1.00  0.00     0.168 HD
HETATM   11  N   HJK A 301       0.321 -10.285 -23.468  1.00  0.00    -0.174 N 
ATOM     12  HN  HJK A 301       0.282 -11.104 -22.862  1.00  0.00     0.186 HD
HETATM   13  H   HJK A 301      -2.074  -6.663 -24.548  1.00  0.00     0.167 HD
ENDROOT
BRANCH   8  14
HETATM   14  C   HJK A 301       0.746  -6.964 -26.159  1.00  0.00    -0.006 C 
HETATM   15  C   HJK A 301       1.855  -6.992 -27.002  1.00  0.00     0.014 C 
HETATM   16  C   HJK A 301       2.078  -5.950 -27.895  1.00  0.00     0.001 C 
HETATM   17  C   HJK A 301       1.159  -4.917 -27.974  1.00  0.00     0.007 C 
HETATM   18  C   HJK A 301       0.095  -4.818 -27.086  1.00  0.00    -0.048 C 
HETATM   19  C   HJK A 301      -0.124  -5.879 -26.240  1.00  0.00     0.021 C 
BRANCH  18  20
HETATM   20  C   HJK A 301      -0.939  -3.701 -27.146  1.00  0.00     0.148 C 
BRANCH  20  21
HETATM   21  C   HJK A 301      -0.911  -2.574 -26.106  1.00  0.00     0.143 C 
HETATM   22  O   HJK A 301      -1.559  -2.745 -25.036  1.00  0.00    -0.650 OA
BRANCH  21  23
HETATM   23  O   HJK A 301      -0.476  -1.500 -26.450  1.00  0.00    -0.776 OA
HETATM   24  H   HJK A 301      -0.610  -1.201 -27.328  1.00  0.00     0.167 HD
ENDBRANCH  21  23
ENDBRANCH  20  21
ENDBRANCH  18  20
ENDBRANCH   8  14
BRANCH   7  25
HETATM   25  N   HJK A 301       2.399 -10.866 -24.317  1.00  0.00    -0.234 N 
HETATM   26  H   HJK A 301       3.025 -10.863 -25.076  1.00  0.00     0.174 HD
HETATM   27  H   HJK A 301       2.539 -11.485 -23.565  1.00  0.00     0.174 HD
ENDBRANCH   7  25
TORSDOF 5
ENDMDL
MODEL 7
REMARK VINA RESULT:    -4.031      3.967      6.522
REMARK INTER + INTRA:          -5.247
REMARK INTER:                  -4.896
REMARK INTRA:                  -0.351
REMARK UNBOUND:                -0.273
REMARK  5 active torsions:
REMARK  status: ('A' for Active; 'I' for Inactive)
REMARK    1  A    between atoms: C_5  and  C_6 
REMARK    2  A    between atoms: C_6  and  C_7 
REMARK    3  A    between atoms: C_7  and  O_18 
REMARK    4  A    between atoms: N_11  and  C_16 
REMARK    5  A    between atoms: C_14  and  C_17 
ROOT
HETATM    1  C   HJK A 301      -0.597  -8.967 -25.275  1.00  0.00     0.106 A 
HETATM    2  C   HJK A 301      -1.499 -10.866 -25.662  1.00  0.00     0.182 A 
HETATM    3  C   HJK A 301      -1.484  -9.238 -24.226  1.00  0.00     0.151 A 
HETATM    4  N   HJK A 301      -0.170  -6.901 -24.228  1.00  0.00    -0.189 N 
ATOM      5  HN  HJK A 301       0.279  -5.986 -24.193  1.00  0.00     0.184 HD
HETATM    6  N   HJK A 301      -0.612 -10.034 -26.164  1.00  0.00    -0.347 N 
HETATM    7  C   HJK A 301      -1.035  -7.264 -23.255  1.00  0.00     0.678 A 
HETATM    8  C   HJK A 301       0.099  -7.740 -25.241  1.00  0.00     0.090 A 
HETATM    9  N   HJK A 301      -2.042 -10.451 -24.483  1.00  0.00    -0.336 N 
ATOM     10  HN  HJK A 301      -2.726 -10.946 -23.912  1.00  0.00     0.168 HD
HETATM   11  N   HJK A 301      -1.729  -8.427 -23.196  1.00  0.00    -0.174 N 
ATOM     12  HN  HJK A 301      -2.373  -8.659 -22.440  1.00  0.00     0.186 HD
HETATM   13  H   HJK A 301      -0.080 -10.143 -26.985  1.00  0.00     0.167 HD
ENDROOT
BRANCH   8  14
HETATM   14  C   HJK A 301       1.077  -7.195 -26.207  1.00  0.00    -0.006 C 
HETATM   15  C   HJK A 301       2.255  -7.871 -26.515  1.00  0.00     0.014 C 
HETATM   16  C   HJK A 301       3.151  -7.330 -27.430  1.00  0.00     0.001 C 
HETATM   17  C   HJK A 301       2.832  -6.142 -28.068  1.00  0.00     0.007 C 
HETATM   18  C   HJK A 301       1.709  -5.404 -27.716  1.00  0.00    -0.048 C 
HETATM   19  C   HJK A 301       0.823  -5.979 -26.837  1.00  0.00     0.021 C 
BRANCH  18  20
HETATM   20  C   HJK A 301       1.322  -4.099 -28.400  1.00  0.00     0.148 C 
BRANCH  20  21
HETATM   21  C   HJK A 301       0.701  -2.959 -27.582  1.00  0.00     0.143 C 
HETATM   22  O   HJK A 301      -0.530  -3.032 -27.312  1.00  0.00    -0.650 OA
BRANCH  21  23
HETATM   23  O   HJK A 301       1.349  -1.949 -27.440  1.00  0.00    -0.776 OA
HETATM   24  H   HJK A 301       1.341  -1.499 -26.618  1.00  0.00     0.167 HD
ENDBRANCH  21  23
ENDBRANCH  20  21
ENDBRANCH  18  20
ENDBRANCH   8  14
BRANCH   7  25
HETATM   25  N   HJK A 301      -1.233  -6.349 -22.295  1.00  0.00    -0.234 N 
HETATM   26  H   HJK A 301      -0.804  -6.458 -21.416  1.00  0.00     0.174 HD
HETATM   27  H   HJK A 301      -1.808  -5.569 -22.470  1.00  0.00     0.174 HD
ENDBRANCH   7  25
TORSDOF 5
ENDMDL
MODEL 8
REMARK VINA RESULT:    -4.024      0.974      1.192
REMARK INTER + INTRA:          -5.238
REMARK INTER:                  -5.017
REMARK INTRA:                  -0.221
REMARK UNBOUND:                -0.273
REMARK  5 active torsions:
REMARK  status: ('A' for Active; 'I' for Inactive)
REMARK    1  A    between atoms: C_5  and  C_6 
REMARK    2  A    between atoms: C_6  and  C_7 
REMARK    3  A    between atoms: C_7  and  O_18 
REMARK    4  A    between atoms: N_11  and  C_16 
REMARK    5  A    between atoms: C_14  and  C_17 
ROOT
HETATM    1  C   HJK A 301       0.389  -5.735 -26.927  1.00  0.00     0.106 A 
HETATM    2  C   HJK A 301      -0.277  -3.706 -27.014  1.00  0.00     0.182 A 
HETATM    3  C   HJK A 301       1.248  -5.042 -27.788  1.00  0.00     0.151 A 
HETATM    4  N   HJK A 301       1.633  -7.671 -27.429  1.00  0.00    -0.189 N 
ATOM      5  HN  HJK A 301       1.808  -8.672 -27.352  1.00  0.00     0.184 HD
HETATM    6  N   HJK A 301      -0.561  -4.850 -26.431  1.00  0.00    -0.347 N 
HETATM    7  C   HJK A 301       2.414  -6.909 -28.226  1.00  0.00     0.678 A 
HETATM    8  C   HJK A 301       0.626  -7.112 -26.737  1.00  0.00     0.090 A 
HETATM    9  N   HJK A 301       0.816  -3.754 -27.826  1.00  0.00    -0.336 N 
ATOM     10  HN  HJK A 301       1.225  -2.983 -28.354  1.00  0.00     0.168 HD
HETATM   11  N   HJK A 301       2.273  -5.580 -28.450  1.00  0.00    -0.174 N 
ATOM     12  HN  HJK A 301       2.889  -5.045 -29.062  1.00  0.00     0.186 HD
HETATM   13  H   HJK A 301      -1.283  -5.038 -25.789  1.00  0.00     0.167 HD
ENDROOT
BRANCH   8  14
HETATM   14  C   HJK A 301      -0.117  -8.082 -25.903  1.00  0.00    -0.006 C 
HETATM   15  C   HJK A 301      -0.339  -9.391 -26.326  1.00  0.00     0.014 C 
HETATM   16  C   HJK A 301      -1.040 -10.276 -25.515  1.00  0.00     0.001 C 
HETATM   17  C   HJK A 301      -1.465  -9.857 -24.264  1.00  0.00     0.007 C 
HETATM   18  C   HJK A 301      -1.336  -8.535 -23.855  1.00  0.00    -0.048 C 
HETATM   19  C   HJK A 301      -0.607  -7.692 -24.659  1.00  0.00     0.021 C 
BRANCH  18  20
HETATM   20  C   HJK A 301      -1.784  -8.040 -22.487  1.00  0.00     0.148 C 
BRANCH  20  21
HETATM   21  C   HJK A 301      -1.844  -9.012 -21.301  1.00  0.00     0.143 C 
HETATM   22  O   HJK A 301      -2.728  -9.911 -21.323  1.00  0.00    -0.650 OA
BRANCH  21  23
HETATM   23  O   HJK A 301      -1.210  -8.732 -20.311  1.00  0.00    -0.776 OA
HETATM   24  H   HJK A 301      -0.911  -7.854 -20.179  1.00  0.00     0.167 HD
ENDBRANCH  21  23
ENDBRANCH  20  21
ENDBRANCH  18  20
ENDBRANCH   8  14
BRANCH   7  25
HETATM   25  N   HJK A 301       3.387  -7.569 -28.872  1.00  0.00    -0.234 N 
HETATM   26  H   HJK A 301       4.050  -7.072 -29.402  1.00  0.00     0.174 HD
HETATM   27  H   HJK A 301       3.436  -8.551 -28.816  1.00  0.00     0.174 HD
ENDBRANCH   7  25
TORSDOF 5
ENDMDL
MODEL 9
REMARK VINA RESULT:    -3.987      4.240      6.822
REMARK INTER + INTRA:          -5.193
REMARK INTER:                  -5.065
REMARK INTRA:                  -0.128
REMARK UNBOUND:                -0.273
REMARK  5 active torsions:
REMARK  status: ('A' for Active; 'I' for Inactive)
REMARK    1  A    between atoms: C_5  and  C_6 
REMARK    2  A    between atoms: C_6  and  C_7 
REMARK    3  A    between atoms: C_7  and  O_18 
REMARK    4  A    between atoms: N_11  and  C_16 
REMARK    5  A    between atoms: C_14  and  C_17 
ROOT
HETATM    1  C   HJK A 301       0.071  -8.958 -24.588  1.00  0.00     0.106 A 
HETATM    2  C   HJK A 301       1.175 -10.745 -24.191  1.00  0.00     0.182 A 
HETATM    3  C   HJK A 301      -0.646  -9.700 -23.642  1.00  0.00     0.151 A 
HETATM    4  N   HJK A 301      -1.690  -7.395 -24.530  1.00  0.00    -0.189 N 
ATOM      5  HN  HJK A 301      -2.147  -6.543 -24.853  1.00  0.00     0.184 HD
HETATM    6  N   HJK A 301       1.240  -9.640 -24.902  1.00  0.00    -0.347 N 
HETATM    7  C   HJK A 301      -2.295  -8.176 -23.609  1.00  0.00     0.678 A 
HETATM    8  C   HJK A 301      -0.488  -7.738 -25.022  1.00  0.00     0.090 A 
HETATM    9  N   HJK A 301       0.072 -10.828 -23.396  1.00  0.00    -0.336 N 
ATOM     10  HN  HJK A 301      -0.167 -11.580 -22.750  1.00  0.00     0.168 HD
HETATM   11  N   HJK A 301      -1.822  -9.349 -23.120  1.00  0.00    -0.174 N 
ATOM     12  HN  HJK A 301      -2.315  -9.907 -22.423  1.00  0.00     0.186 HD
HETATM   13  H   HJK A 301       1.955  -9.361 -25.518  1.00  0.00     0.167 HD
ENDROOT
BRANCH   8  14
HETATM   14  C   HJK A 301       0.038  -6.767 -26.006  1.00  0.00    -0.006 C 
HETATM   15  C   HJK A 301      -0.660  -5.607 -26.334  1.00  0.00     0.014 C 
HETATM   16  C   HJK A 301      -0.134  -4.715 -27.261  1.00  0.00     0.001 C 
HETATM   17  C   HJK A 301       1.112  -4.967 -27.811  1.00  0.00     0.007 C 
HETATM   18  C   HJK A 301       1.789  -6.156 -27.570  1.00  0.00    -0.048 C 
HETATM   19  C   HJK A 301       1.265  -7.002 -26.622  1.00  0.00     0.021 C 
BRANCH  18  20
HETATM   20  C   HJK A 301       3.163  -6.465 -28.150  1.00  0.00     0.148 C 
BRANCH  20  21
HETATM   21  C   HJK A 301       3.422  -7.816 -28.831  1.00  0.00     0.143 C 
HETATM   22  O   HJK A 301       3.378  -7.857 -30.091  1.00  0.00    -0.650 OA
BRANCH  21  23
HETATM   23  O   HJK A 301       3.422  -8.805 -28.137  1.00  0.00    -0.776 OA
HETATM   24  H   HJK A 301       4.230  -9.237 -27.938  1.00  0.00     0.167 HD
ENDBRANCH  21  23
ENDBRANCH  20  21
ENDBRANCH  18  20
ENDBRANCH   8  14
BRANCH   7  25
HETATM   25  N   HJK A 301      -3.492  -7.743 -23.188  1.00  0.00    -0.234 N 
HETATM   26  H   HJK A 301      -4.070  -7.227 -23.796  1.00  0.00     0.174 HD
HETATM   27  H   HJK A 301      -3.793  -7.940 -22.272  1.00  0.00     0.174 HD
ENDBRANCH   7  25
TORSDOF 5
ENDMDL
MODEL 10
REMARK VINA RESULT:    -3.926      4.109      6.333
REMARK INTER + INTRA:          -5.117
REMARK INTER:                  -4.766
REMARK INTRA:                  -0.350
REMARK UNBOUND:                -0.273
REMARK  5 active torsions:
REMARK  status: ('A' for Active; 'I' for Inactive)
REMARK    1  A    between atoms: C_5  and  C_6 
REMARK    2  A    between atoms: C_6  and  C_7 
REMARK    3  A    between atoms: C_7  and  O_18 
REMARK    4  A    between atoms: N_11  and  C_16 
REMARK    5  A    between atoms: C_14  and  C_17 
ROOT
HETATM    1  C   HJK A 301      -1.102  -7.263 -23.789  1.00  0.00     0.106 A 
HETATM    2  C   HJK A 301      -1.534  -6.638 -21.791  1.00  0.00     0.182 A 
HETATM    3  C   HJK A 301      -1.649  -8.358 -23.109  1.00  0.00     0.151 A 
HETATM    4  N   HJK A 301      -0.857  -8.685 -25.650  1.00  0.00    -0.189 N 
ATOM      5  HN  HJK A 301      -0.546  -8.874 -26.602  1.00  0.00     0.184 HD
HETATM    6  N   HJK A 301      -1.063  -6.174 -22.927  1.00  0.00    -0.347 N 
HETATM    7  C   HJK A 301      -1.409  -9.673 -24.912  1.00  0.00     0.678 A 
HETATM    8  C   HJK A 301      -0.714  -7.454 -25.131  1.00  0.00     0.090 A 
HETATM    9  N   HJK A 301      -1.925  -7.942 -21.844  1.00  0.00    -0.336 N 
ATOM     10  HN  HJK A 301      -2.337  -8.493 -21.092  1.00  0.00     0.168 HD
HETATM   11  N   HJK A 301      -1.829  -9.573 -23.628  1.00  0.00    -0.174 N 
ATOM     12  HN  HJK A 301      -2.241 -10.349 -23.109  1.00  0.00     0.186 HD
HETATM   13  H   HJK A 301      -0.751  -5.260 -23.123  1.00  0.00     0.167 HD
ENDROOT
BRANCH   8  14
HETATM   14  C   HJK A 301      -0.109  -6.490 -26.075  1.00  0.00    -0.006 C 
HETATM   15  C   HJK A 301      -0.750  -5.300 -26.416  1.00  0.00     0.014 C 
HETATM   16  C   HJK A 301      -0.150  -4.416 -27.304  1.00  0.00     0.001 C 
HETATM   17  C   HJK A 301       1.110  -4.705 -27.801  1.00  0.00     0.007 C 
HETATM   18  C   HJK A 301       1.732  -5.922 -27.549  1.00  0.00    -0.048 C 
HETATM   19  C   HJK A 301       1.135  -6.761 -26.638  1.00  0.00     0.021 C 
BRANCH  18  20
HETATM   20  C   HJK A 301       3.119  -6.273 -28.071  1.00  0.00     0.148 C 
BRANCH  20  21
HETATM   21  C   HJK A 301       3.339  -7.577 -28.848  1.00  0.00     0.143 C 
HETATM   22  O   HJK A 301       3.314  -7.522 -30.108  1.00  0.00    -0.650 OA
BRANCH  21  23
HETATM   23  O   HJK A 301       3.291  -8.615 -28.231  1.00  0.00    -0.776 OA
HETATM   24  H   HJK A 301       4.054  -9.154 -28.160  1.00  0.00     0.167 HD
ENDBRANCH  21  23
ENDBRANCH  20  21
ENDBRANCH  18  20
ENDBRANCH   8  14
BRANCH   7  25
HETATM   25  N   HJK A 301      -1.500 -10.862 -25.526  1.00  0.00    -0.234 N 
HETATM   26  H   HJK A 301      -0.694 -11.286 -25.900  1.00  0.00     0.174 HD
HETATM   27  H   HJK A 301      -2.373 -11.311 -25.603  1.00  0.00     0.174 HD
ENDBRANCH   7  25
TORSDOF 5
ENDMDL
MODEL 11
REMARK VINA RESULT:    -3.905      1.414      1.618
REMARK INTER + INTRA:          -5.091
REMARK INTER:                  -4.744
REMARK INTRA:                  -0.348
REMARK UNBOUND:                -0.273
REMARK  5 active torsions:
REMARK  status: ('A' for Active; 'I' for Inactive)
REMARK    1  A    between atoms: C_5  and  C_6 
REMARK    2  A    between atoms: C_6  and  C_7 
REMARK    3  A    between atoms: C_7  and  O_18 
REMARK    4  A    between atoms: N_11  and  C_16 
REMARK    5  A    between atoms: C_14  and  C_17 
ROOT
HETATM    1  C   HJK A 301       0.443  -5.811 -26.893  1.00  0.00     0.106 A 
HETATM    2  C   HJK A 301      -0.340  -3.825 -26.777  1.00  0.00     0.182 A 
HETATM    3  C   HJK A 301       1.197  -5.005 -27.754  1.00  0.00     0.151 A 
HETATM    4  N   HJK A 301       1.754  -7.624 -27.626  1.00  0.00    -0.189 N 
ATOM      5  HN  HJK A 301       1.990  -8.616 -27.640  1.00  0.00     0.184 HD
HETATM    6  N   HJK A 301      -0.516  -5.025 -26.267  1.00  0.00    -0.347 N 
HETATM    7  C   HJK A 301       2.432  -6.760 -28.413  1.00  0.00     0.678 A 
HETATM    8  C   HJK A 301       0.770  -7.181 -26.827  1.00  0.00     0.090 A 
HETATM    9  N   HJK A 301       0.692  -3.746 -27.663  1.00  0.00    -0.336 N 
ATOM     10  HN  HJK A 301       1.018  -2.915 -28.156  1.00  0.00     0.168 HD
HETATM   11  N   HJK A 301       2.200  -5.429 -28.523  1.00  0.00    -0.174 N 
ATOM     12  HN  HJK A 301       2.739  -4.814 -29.133  1.00  0.00     0.186 HD
HETATM   13  H   HJK A 301      -1.179  -5.303 -25.594  1.00  0.00     0.167 HD
ENDROOT
BRANCH   8  14
HETATM   14  C   HJK A 301       0.145  -8.253 -26.022  1.00  0.00    -0.006 C 
HETATM   15  C   HJK A 301       0.134  -9.578 -26.452  1.00  0.00     0.014 C 
HETATM   16  C   HJK A 301      -0.461 -10.560 -25.668  1.00  0.00     0.001 C 
HETATM   17  C   HJK A 301      -0.991 -10.214 -24.436  1.00  0.00     0.007 C 
HETATM   18  C   HJK A 301      -1.073  -8.890 -24.023  1.00  0.00    -0.048 C 
HETATM   19  C   HJK A 301      -0.444  -7.945 -24.798  1.00  0.00     0.021 C 
BRANCH  18  20
HETATM   20  C   HJK A 301      -1.641  -8.472 -22.673  1.00  0.00     0.148 C 
BRANCH  20  21
HETATM   21  C   HJK A 301      -2.603  -7.280 -22.582  1.00  0.00     0.143 C 
HETATM   22  O   HJK A 301      -3.695  -7.357 -23.209  1.00  0.00    -0.650 OA
BRANCH  21  23
HETATM   23  O   HJK A 301      -2.179  -6.248 -22.118  1.00  0.00    -0.776 OA
HETATM   24  H   HJK A 301      -2.721  -5.484 -22.103  1.00  0.00     0.167 HD
ENDBRANCH  21  23
ENDBRANCH  20  21
ENDBRANCH  18  20
ENDBRANCH   8  14
BRANCH   7  25
HETATM   25  N   HJK A 301       3.390  -7.310 -29.174  1.00  0.00    -0.234 N 
HETATM   26  H   HJK A 301       4.081  -6.740 -29.582  1.00  0.00     0.174 HD
HETATM   27  H   HJK A 301       3.403  -8.283 -29.323  1.00  0.00     0.174 HD
ENDBRANCH   7  25
TORSDOF 5
ENDMDL
MODEL 12
REMARK VINA RESULT:    -3.660      4.392      6.610
REMARK INTER + INTRA:          -4.790
REMARK INTER:                  -4.385
REMARK INTRA:                  -0.405
REMARK UNBOUND:                -0.273
REMARK  5 active torsions:
REMARK  status: ('A' for Active; 'I' for Inactive)
REMARK    1  A    between atoms: C_5  and  C_6 
REMARK    2  A    between atoms: C_6  and  C_7 
REMARK    3  A    between atoms: C_7  and  O_18 
REMARK    4  A    between atoms: N_11  and  C_16 
REMARK    5  A    between atoms: C_14  and  C_17 
ROOT
HETATM    1  C   HJK A 301      -0.850  -8.894 -23.253  1.00  0.00     0.106 A 
HETATM    2  C   HJK A 301      -2.225  -9.525 -21.743  1.00  0.00     0.182 A 
HETATM    3  C   HJK A 301      -0.477 -10.183 -22.850  1.00  0.00     0.151 A 
HETATM    4  N   HJK A 301       1.021  -8.924 -24.683  1.00  0.00    -0.189 N 
ATOM      5  HN  HJK A 301       1.643  -8.483 -25.360  1.00  0.00     0.184 HD
HETATM    6  N   HJK A 301      -1.982  -8.512 -22.545  1.00  0.00    -0.347 N 
HETATM    7  C   HJK A 301       1.287 -10.173 -24.239  1.00  0.00     0.678 A 
HETATM    8  C   HJK A 301      -0.059  -8.263 -24.236  1.00  0.00     0.090 A 
HETATM    9  N   HJK A 301      -1.365 -10.571 -21.896  1.00  0.00    -0.336 N 
ATOM     10  HN  HJK A 301      -1.382 -11.461 -21.399  1.00  0.00     0.168 HD
HETATM   11  N   HJK A 301       0.571 -10.862 -23.316  1.00  0.00    -0.174 N 
ATOM     12  HN  HJK A 301       0.810 -11.805 -23.010  1.00  0.00     0.186 HD
HETATM   13  H   HJK A 301      -2.488  -7.671 -22.625  1.00  0.00     0.167 HD
ENDROOT
BRANCH   8  14
HETATM   14  C   HJK A 301      -0.210  -6.920 -24.835  1.00  0.00    -0.006 C 
HETATM   15  C   HJK A 301      -0.597  -5.819 -24.073  1.00  0.00     0.014 C 
HETATM   16  C   HJK A 301      -0.727  -4.570 -24.669  1.00  0.00     0.001 C 
HETATM   17  C   HJK A 301      -0.416  -4.425 -26.011  1.00  0.00     0.007 C 
HETATM   18  C   HJK A 301      -0.116  -5.519 -26.813  1.00  0.00    -0.048 C 
HETATM   19  C   HJK A 301       0.043  -6.734 -26.192  1.00  0.00     0.021 C 
BRANCH  18  20
HETATM   20  C   HJK A 301       0.238  -5.398 -28.289  1.00  0.00     0.148 C 
BRANCH  20  21
HETATM   21  C   HJK A 301       1.675  -5.059 -28.708  1.00  0.00     0.143 C 
HETATM   22  O   HJK A 301       2.445  -6.018 -28.995  1.00  0.00    -0.650 OA
BRANCH  21  23
HETATM   23  O   HJK A 301       2.066  -3.931 -28.521  1.00  0.00    -0.776 OA
HETATM   24  H   HJK A 301       2.835  -3.623 -28.959  1.00  0.00     0.167 HD
ENDBRANCH  21  23
ENDBRANCH  20  21
ENDBRANCH  18  20
ENDBRANCH   8  14
BRANCH   7  25
HETATM   25  N   HJK A 301       2.391 -10.739 -24.748  1.00  0.00    -0.234 N 
HETATM   26  H   HJK A 301       3.213 -10.207 -24.852  1.00  0.00     0.174 HD
HETATM   27  H   HJK A 301       2.378 -11.686 -25.018  1.00  0.00     0.174 HD
ENDBRANCH   7  25
TORSDOF 5
ENDMDL
MODEL 13
REMARK VINA RESULT:    -3.657      1.820      3.529
REMARK INTER + INTRA:          -4.786
REMARK INTER:                  -4.508
REMARK INTRA:                  -0.278
REMARK UNBOUND:                -0.273
REMARK  5 active torsions:
REMARK  status: ('A' for Active; 'I' for Inactive)
REMARK    1  A    between atoms: C_5  and  C_6 
REMARK    2  A    between atoms: C_6  and  C_7 
REMARK    3  A    between atoms: C_7  and  O_18 
REMARK    4  A    between atoms: N_11  and  C_16 
REMARK    5  A    between atoms: C_14  and  C_17 
ROOT
HETATM    1  C   HJK A 301       1.847  -7.748 -26.587  1.00  0.00     0.106 A 
HETATM    2  C   HJK A 301       3.152  -9.353 -27.126  1.00  0.00     0.182 A 
HETATM    3  C   HJK A 301       2.524  -7.372 -27.754  1.00  0.00     0.151 A 
HETATM    4  N   HJK A 301       0.825  -5.627 -26.633  1.00  0.00    -0.189 N 
ATOM      5  HN  HJK A 301       0.215  -4.914 -26.235  1.00  0.00     0.184 HD
HETATM    6  N   HJK A 301       2.253  -9.026 -26.224  1.00  0.00    -0.347 N 
HETATM    7  C   HJK A 301       1.515  -5.367 -27.766  1.00  0.00     0.678 A 
HETATM    8  C   HJK A 301       0.942  -6.821 -26.030  1.00  0.00     0.090 A 
HETATM    9  N   HJK A 301       3.342  -8.405 -28.087  1.00  0.00    -0.336 N 
ATOM     10  HN  HJK A 301       3.970  -8.459 -28.889  1.00  0.00     0.168 HD
HETATM   11  N   HJK A 301       2.386  -6.204 -28.381  1.00  0.00    -0.174 N 
ATOM     12  HN  HJK A 301       2.886  -5.964 -29.237  1.00  0.00     0.186 HD
HETATM   13  H   HJK A 301       1.939  -9.565 -25.462  1.00  0.00     0.167 HD
ENDROOT
BRANCH   8  14
HETATM   14  C   HJK A 301       0.108  -6.944 -24.815  1.00  0.00    -0.006 C 
HETATM   15  C   HJK A 301      -0.299  -5.826 -24.090  1.00  0.00     0.014 C 
HETATM   16  C   HJK A 301      -1.084  -5.979 -22.954  1.00  0.00     0.001 C 
HETATM   17  C   HJK A 301      -1.499  -7.248 -22.584  1.00  0.00     0.007 C 
HETATM   18  C   HJK A 301      -1.036  -8.385 -23.234  1.00  0.00    -0.048 C 
HETATM   19  C   HJK A 301      -0.293  -8.204 -24.376  1.00  0.00     0.021 C 
BRANCH  18  20
HETATM   20  C   HJK A 301      -1.476  -9.795 -22.861  1.00  0.00     0.148 C 
BRANCH  20  21
HETATM   21  C   HJK A 301      -1.815 -10.133 -21.403  1.00  0.00     0.143 C 
HETATM   22  O   HJK A 301      -2.981  -9.875 -20.997  1.00  0.00    -0.650 OA
BRANCH  21  23
HETATM   23  O   HJK A 301      -0.901 -10.404 -20.661  1.00  0.00    -0.776 OA
HETATM   24  H   HJK A 301      -0.962 -11.148 -20.095  1.00  0.00     0.167 HD
ENDBRANCH  21  23
ENDBRANCH  20  21
ENDBRANCH  18  20
ENDBRANCH   8  14
BRANCH   7  25
HETATM   25  N   HJK A 301       1.327  -4.144 -28.283  1.00  0.00    -0.234 N 
HETATM   26  H   HJK A 301       1.309  -4.019 -29.259  1.00  0.00     0.174 HD
HETATM   27  H   HJK A 301       1.207  -3.370 -27.685  1.00  0.00     0.174 HD
ENDBRANCH   7  25
TORSDOF 5
ENDMDL
MODEL 14
REMARK VINA RESULT:    -3.603      1.930      3.012
REMARK INTER + INTRA:          -4.719
REMARK INTER:                  -4.376
REMARK INTRA:                  -0.343
REMARK UNBOUND:                -0.273
REMARK  5 active torsions:
REMARK  status: ('A' for Active; 'I' for Inactive)
REMARK    1  A    between atoms: C_5  and  C_6 
REMARK    2  A    between atoms: C_6  and  C_7 
REMARK    3  A    between atoms: C_7  and  O_18 
REMARK    4  A    between atoms: N_11  and  C_16 
REMARK    5  A    between atoms: C_14  and  C_17 
ROOT
HETATM    1  C   HJK A 301       1.393  -6.509 -26.918  1.00  0.00     0.106 A 
HETATM    2  C   HJK A 301       1.474  -4.854 -28.269  1.00  0.00     0.182 A 
HETATM    3  C   HJK A 301       2.377  -6.788 -27.875  1.00  0.00     0.151 A 
HETATM    4  N   HJK A 301       1.844  -8.631 -26.003  1.00  0.00    -0.189 N 
ATOM      5  HN  HJK A 301       1.663  -9.379 -25.334  1.00  0.00     0.184 HD
HETATM    6  N   HJK A 301       0.851  -5.258 -27.183  1.00  0.00    -0.347 N 
HETATM    7  C   HJK A 301       2.784  -8.797 -26.960  1.00  0.00     0.678 A 
HETATM    8  C   HJK A 301       1.148  -7.485 -25.931  1.00  0.00     0.090 A 
HETATM    9  N   HJK A 301       2.421  -5.724 -28.720  1.00  0.00    -0.336 N 
ATOM     10  HN  HJK A 301       3.035  -5.603 -29.525  1.00  0.00     0.168 HD
HETATM   11  N   HJK A 301       3.100  -7.907 -27.932  1.00  0.00    -0.174 N 
ATOM     12  HN  HJK A 301       3.819  -8.075 -28.636  1.00  0.00     0.186 HD
HETATM   13  H   HJK A 301       0.156  -4.782 -26.674  1.00  0.00     0.167 HD
ENDROOT
BRANCH   8  14
HETATM   14  C   HJK A 301       0.174  -7.463 -24.818  1.00  0.00    -0.006 C 
HETATM   15  C   HJK A 301      -0.240  -6.268 -24.233  1.00  0.00     0.014 C 
HETATM   16  C   HJK A 301      -1.159  -6.284 -23.190  1.00  0.00     0.001 C 
HETATM   17  C   HJK A 301      -1.695  -7.494 -22.779  1.00  0.00     0.007 C 
HETATM   18  C   HJK A 301      -1.235  -8.704 -23.282  1.00  0.00    -0.048 C 
HETATM   19  C   HJK A 301      -0.355  -8.658 -24.337  1.00  0.00     0.021 C 
BRANCH  18  20
HETATM   20  C   HJK A 301      -1.805 -10.052 -22.860  1.00  0.00     0.148 C 
BRANCH  20  21
HETATM   21  C   HJK A 301      -1.727 -10.493 -21.392  1.00  0.00     0.143 C 
HETATM   22  O   HJK A 301      -2.704 -10.217 -20.643  1.00  0.00    -0.650 OA
BRANCH  21  23
HETATM   23  O   HJK A 301      -0.657 -10.865 -20.972  1.00  0.00    -0.776 OA
HETATM   24  H   HJK A 301       0.116 -10.366 -21.150  1.00  0.00     0.167 HD
ENDBRANCH  21  23
ENDBRANCH  20  21
ENDBRANCH  18  20
ENDBRANCH   8  14
BRANCH   7  25
HETATM   25  N   HJK A 301       3.416  -9.980 -26.942  1.00  0.00    -0.234 N 
HETATM   26  H   HJK A 301       4.152 -10.153 -27.572  1.00  0.00     0.174 HD
HETATM   27  H   HJK A 301       3.143 -10.674 -26.299  1.00  0.00     0.174 HD
ENDBRANCH   7  25
TORSDOF 5
ENDMDL
MODEL 15
REMARK VINA RESULT:    -3.396      2.607      3.938
REMARK INTER + INTRA:          -4.463
REMARK INTER:                  -4.253
REMARK INTRA:                  -0.210
REMARK UNBOUND:                -0.273
REMARK  5 active torsions:
REMARK  status: ('A' for Active; 'I' for Inactive)
REMARK    1  A    between atoms: C_5  and  C_6 
REMARK    2  A    between atoms: C_6  and  C_7 
REMARK    3  A    between atoms: C_7  and  O_18 
REMARK    4  A    between atoms: N_11  and  C_16 
REMARK    5  A    between atoms: C_14  and  C_17 
ROOT
HETATM    1  C   HJK A 301       0.869  -5.967 -26.924  1.00  0.00     0.106 A 
HETATM    2  C   HJK A 301       2.323  -6.217 -28.470  1.00  0.00     0.182 A 
HETATM    3  C   HJK A 301       0.931  -4.769 -27.646  1.00  0.00     0.151 A 
HETATM    4  N   HJK A 301      -0.706  -4.910 -25.528  1.00  0.00    -0.189 N 
ATOM      5  HN  HJK A 301      -1.323  -4.897 -24.716  1.00  0.00     0.184 HD
HETATM    6  N   HJK A 301       1.752  -6.879 -27.487  1.00  0.00    -0.347 N 
HETATM    7  C   HJK A 301      -0.584  -3.806 -26.299  1.00  0.00     0.678 A 
HETATM    8  C   HJK A 301      -0.018  -6.023 -25.828  1.00  0.00     0.090 A 
HETATM    9  N   HJK A 301       1.854  -4.947 -28.628  1.00  0.00    -0.336 N 
ATOM     10  HN  HJK A 301       2.137  -4.270 -29.337  1.00  0.00     0.168 HD
HETATM   11  N   HJK A 301       0.224  -3.671 -27.379  1.00  0.00    -0.174 N 
ATOM     12  HN  HJK A 301       0.284  -2.817 -27.932  1.00  0.00     0.186 HD
HETATM   13  H   HJK A 301       1.915  -7.810 -27.213  1.00  0.00     0.167 HD
ENDROOT
BRANCH   8  14
HETATM   14  C   HJK A 301      -0.279  -7.140 -24.895  1.00  0.00    -0.006 C 
HETATM   15  C   HJK A 301      -1.285  -7.069 -23.933  1.00  0.00     0.014 C 
HETATM   16  C   HJK A 301      -1.505  -8.139 -23.074  1.00  0.00     0.001 C 
HETATM   17  C   HJK A 301      -0.751  -9.292 -23.222  1.00  0.00     0.007 C 
HETATM   18  C   HJK A 301       0.314  -9.358 -24.111  1.00  0.00    -0.048 C 
HETATM   19  C   HJK A 301       0.485  -8.301 -24.974  1.00  0.00     0.021 C 
BRANCH  18  20
HETATM   20  C   HJK A 301       1.159 -10.610 -24.308  1.00  0.00     0.148 C 
BRANCH  20  21
HETATM   21  C   HJK A 301       2.136 -10.698 -25.488  1.00  0.00     0.143 C 
HETATM   22  O   HJK A 301       1.650 -10.866 -26.641  1.00  0.00    -0.650 OA
BRANCH  21  23
HETATM   23  O   HJK A 301       3.310 -10.839 -25.239  1.00  0.00    -0.776 OA
HETATM   24  H   HJK A 301       3.576 -11.413 -24.548  1.00  0.00     0.167 HD
ENDBRANCH  21  23
ENDBRANCH  20  21
ENDBRANCH  18  20
ENDBRANCH   8  14
BRANCH   7  25
HETATM   25  N   HJK A 301      -1.313  -2.751 -25.907  1.00  0.00    -0.234 N 
HETATM   26  H   HJK A 301      -2.264  -2.691 -26.155  1.00  0.00     0.174 HD
HETATM   27  H   HJK A 301      -0.898  -2.037 -25.371  1.00  0.00     0.174 HD
ENDBRANCH   7  25
TORSDOF 5
ENDMDL
MODEL 16
REMARK VINA RESULT:    -3.175      1.983      2.719
REMARK INTER + INTRA:          -4.190
REMARK INTER:                  -3.930
REMARK INTRA:                  -0.260
REMARK UNBOUND:                -0.273
REMARK  5 active torsions:
REMARK  status: ('A' for Active; 'I' for Inactive)
REMARK    1  A    between atoms: C_5  and  C_6 
REMARK    2  A    between atoms: C_6  and  C_7 
REMARK    3  A    between atoms: C_7  and  O_18 
REMARK    4  A    between atoms: N_11  and  C_16 
REMARK    5  A    between atoms: C_14  and  C_17 
ROOT
HETATM    1  C   HJK A 301       0.149  -4.594 -26.596  1.00  0.00     0.106 A 
HETATM    2  C   HJK A 301      -0.570  -2.629 -27.033  1.00  0.00     0.182 A 
HETATM    3  C   HJK A 301       0.866  -4.114 -27.698  1.00  0.00     0.151 A 
HETATM    4  N   HJK A 301       1.359  -6.601 -26.827  1.00  0.00    -0.189 N 
ATOM      5  HN  HJK A 301       1.567  -7.562 -26.558  1.00  0.00     0.184 HD
HETATM    6  N   HJK A 301      -0.744  -3.615 -26.180  1.00  0.00    -0.347 N 
HETATM    7  C   HJK A 301       2.006  -6.040 -27.873  1.00  0.00     0.678 A 
HETATM    8  C   HJK A 301       0.443  -5.897 -26.143  1.00  0.00     0.090 A 
HETATM    9  N   HJK A 301       0.402  -2.863 -27.958  1.00  0.00    -0.336 N 
ATOM     10  HN  HJK A 301       0.717  -2.231 -28.694  1.00  0.00     0.168 HD
HETATM   11  N   HJK A 301       1.804  -4.792 -28.361  1.00  0.00    -0.174 N 
ATOM     12  HN  HJK A 301       2.317  -4.409 -29.155  1.00  0.00     0.186 HD
HETATM   13  H   HJK A 301      -1.368  -3.651 -25.419  1.00  0.00     0.167 HD
ENDROOT
BRANCH   8  14
HETATM   14  C   HJK A 301      -0.156  -6.653 -25.022  1.00  0.00    -0.006 C 
HETATM   15  C   HJK A 301      -0.544  -6.024 -23.841  1.00  0.00     0.014 C 
HETATM   16  C   HJK A 301      -1.106  -6.765 -22.808  1.00  0.00     0.001 C 
HETATM   17  C   HJK A 301      -1.324  -8.121 -22.989  1.00  0.00     0.007 C 
HETATM   18  C   HJK A 301      -0.865  -8.789 -24.118  1.00  0.00    -0.048 C 
HETATM   19  C   HJK A 301      -0.348  -8.027 -25.138  1.00  0.00     0.021 C 
BRANCH  18  20
HETATM   20  C   HJK A 301      -1.092 -10.277 -24.355  1.00  0.00     0.148 C 
BRANCH  20  21
HETATM   21  C   HJK A 301      -1.421 -10.787 -25.764  1.00  0.00     0.143 C 
HETATM   22  O   HJK A 301      -0.476 -10.865 -26.596  1.00  0.00    -0.650 OA
BRANCH  21  23
HETATM   23  O   HJK A 301      -2.586 -10.865 -26.077  1.00  0.00    -0.776 OA
HETATM   24  H   HJK A 301      -3.078 -10.086 -26.245  1.00  0.00     0.167 HD
ENDBRANCH  21  23
ENDBRANCH  20  21
ENDBRANCH  18  20
ENDBRANCH   8  14
BRANCH   7  25
HETATM   25  N   HJK A 301       2.897  -6.833 -28.487  1.00  0.00    -0.234 N 
HETATM   26  H   HJK A 301       3.274  -6.568 -29.356  1.00  0.00     0.174 HD
HETATM   27  H   HJK A 301       3.173  -7.680 -28.067  1.00  0.00     0.174 HD
ENDBRANCH   7  25
TORSDOF 5
ENDMDL
MODEL 17
REMARK VINA RESULT:    -2.993      3.781      6.381
REMARK INTER + INTRA:          -3.966
REMARK INTER:                  -3.759
REMARK INTRA:                  -0.207
REMARK UNBOUND:                -0.273
REMARK  5 active torsions:
REMARK  status: ('A' for Active; 'I' for Inactive)
REMARK    1  A    between atoms: C_5  and  C_6 
REMARK    2  A    between atoms: C_6  and  C_7 
REMARK    3  A    between atoms: C_7  and  O_18 
REMARK    4  A    between atoms: N_11  and  C_16 
REMARK    5  A    between atoms: C_14  and  C_17 
ROOT
HETATM    1  C   HJK A 301       1.159  -8.923 -25.199  1.00  0.00     0.106 A 
HETATM    2  C   HJK A 301       2.416 -10.649 -25.097  1.00  0.00     0.182 A 
HETATM    3  C   HJK A 301       0.629  -9.778 -24.225  1.00  0.00     0.151 A 
HETATM    4  N   HJK A 301      -0.670  -7.499 -24.780  1.00  0.00    -0.189 N 
ATOM      5  HN  HJK A 301      -1.220  -6.662 -24.970  1.00  0.00     0.184 HD
HETATM    6  N   HJK A 301       2.311  -9.496 -25.721  1.00  0.00    -0.347 N 
HETATM    7  C   HJK A 301      -1.089  -8.383 -23.848  1.00  0.00     0.678 A 
HETATM    8  C   HJK A 301       0.469  -7.719 -25.456  1.00  0.00     0.090 A 
HETATM    9  N   HJK A 301       1.443 -10.865 -24.168  1.00  0.00    -0.336 N 
ATOM     10  HN  HJK A 301       1.345 -11.675 -23.556  1.00  0.00     0.168 HD
HETATM   11  N   HJK A 301      -0.481  -9.550 -23.522  1.00  0.00    -0.174 N 
ATOM     12  HN  HJK A 301      -0.835 -10.188 -22.810  1.00  0.00     0.186 HD
HETATM   13  H   HJK A 301       2.914  -9.123 -26.405  1.00  0.00     0.167 HD
ENDROOT
BRANCH   8  14
HETATM   14  C   HJK A 301       0.791  -6.647 -26.423  1.00  0.00    -0.006 C 
HETATM   15  C   HJK A 301       1.877  -6.747 -27.290  1.00  0.00     0.014 C 
HETATM   16  C   HJK A 301       2.148  -5.722 -28.188  1.00  0.00     0.001 C 
HETATM   17  C   HJK A 301       1.297  -4.630 -28.246  1.00  0.00     0.007 C 
HETATM   18  C   HJK A 301       0.262  -4.463 -27.334  1.00  0.00    -0.048 C 
HETATM   19  C   HJK A 301      -0.007  -5.508 -26.483  1.00  0.00     0.021 C 
BRANCH  18  20
HETATM   20  C   HJK A 301      -0.697  -3.280 -27.371  1.00  0.00     0.148 C 
BRANCH  20  21
HETATM   21  C   HJK A 301      -0.883  -2.404 -26.125  1.00  0.00     0.143 C 
HETATM   22  O   HJK A 301      -1.641  -2.834 -25.212  1.00  0.00    -0.650 OA
BRANCH  21  23
HETATM   23  O   HJK A 301      -0.493  -1.262 -26.176  1.00  0.00    -0.776 OA
HETATM   24  H   HJK A 301       0.132  -0.952 -25.550  1.00  0.00     0.167 HD
ENDBRANCH  21  23
ENDBRANCH  20  21
ENDBRANCH  18  20
ENDBRANCH   8  14
BRANCH   7  25
HETATM   25  N   HJK A 301      -2.240  -8.067 -23.237  1.00  0.00    -0.234 N 
HETATM   26  H   HJK A 301      -2.255  -7.359 -22.553  1.00  0.00     0.174 HD
HETATM   27  H   HJK A 301      -3.069  -8.543 -23.472  1.00  0.00     0.174 HD
ENDBRANCH   7  25
TORSDOF 5
ENDMDL
MODEL 18
REMARK VINA RESULT:    -2.985      4.396      6.818
REMARK INTER + INTRA:          -3.956
REMARK INTER:                  -3.652
REMARK INTRA:                  -0.304
REMARK UNBOUND:                -0.273
REMARK  5 active torsions:
REMARK  status: ('A' for Active; 'I' for Inactive)
REMARK    1  A    between atoms: C_5  and  C_6 
REMARK    2  A    between atoms: C_6  and  C_7 
REMARK    3  A    between atoms: C_7  and  O_18 
REMARK    4  A    between atoms: N_11  and  C_16 
REMARK    5  A    between atoms: C_14  and  C_17 
ROOT
HETATM    1  C   HJK A 301      -1.372  -9.428 -22.031  1.00  0.00     0.106 A 
HETATM    2  C   HJK A 301      -2.148 -10.858 -20.645  1.00  0.00     0.182 A 
HETATM    3  C   HJK A 301      -2.033  -8.723 -21.018  1.00  0.00     0.151 A 
HETATM    4  N   HJK A 301      -0.961  -7.346 -23.054  1.00  0.00    -0.189 N 
ATOM      5  HN  HJK A 301      -0.599  -6.775 -23.817  1.00  0.00     0.184 HD
HETATM    6  N   HJK A 301      -1.443 -10.787 -21.753  1.00  0.00    -0.347 N 
HETATM    7  C   HJK A 301      -1.606  -6.760 -22.021  1.00  0.00     0.678 A 
HETATM    8  C   HJK A 301      -0.797  -8.679 -23.079  1.00  0.00     0.090 A 
HETATM    9  N   HJK A 301      -2.513  -9.645 -20.142  1.00  0.00    -0.336 N 
ATOM     10  HN  HJK A 301      -3.039  -9.466 -19.287  1.00  0.00     0.168 HD
HETATM   11  N   HJK A 301      -2.168  -7.397 -20.965  1.00  0.00    -0.174 N 
ATOM     12  HN  HJK A 301      -2.647  -6.912 -20.206  1.00  0.00     0.186 HD
HETATM   13  H   HJK A 301      -1.055 -11.529 -22.270  1.00  0.00     0.167 HD
ENDROOT
BRANCH   8  14
HETATM   14  C   HJK A 301      -0.057  -9.153 -24.269  1.00  0.00    -0.006 C 
HETATM   15  C   HJK A 301      -0.457 -10.286 -24.974  1.00  0.00     0.014 C 
HETATM   16  C   HJK A 301       0.261 -10.702 -26.089  1.00  0.00     0.001 C 
HETATM   17  C   HJK A 301       1.341  -9.948 -26.519  1.00  0.00     0.007 C 
HETATM   18  C   HJK A 301       1.814  -8.868 -25.785  1.00  0.00    -0.048 C 
HETATM   19  C   HJK A 301       1.065  -8.456 -24.710  1.00  0.00     0.021 C 
BRANCH  18  20
HETATM   20  C   HJK A 301       2.993  -8.011 -26.230  1.00  0.00     0.148 C 
BRANCH  20  21
HETATM   21  C   HJK A 301       2.748  -6.730 -27.038  1.00  0.00     0.143 C 
HETATM   22  O   HJK A 301       1.721  -6.050 -26.764  1.00  0.00    -0.650 OA
BRANCH  21  23
HETATM   23  O   HJK A 301       3.407  -6.560 -28.037  1.00  0.00    -0.776 OA
HETATM   24  H   HJK A 301       3.763  -5.714 -28.224  1.00  0.00     0.167 HD
ENDBRANCH  21  23
ENDBRANCH  20  21
ENDBRANCH  18  20
ENDBRANCH   8  14
BRANCH   7  25
HETATM   25  N   HJK A 301      -1.717  -5.426 -22.099  1.00  0.00    -0.234 N 
HETATM   26  H   HJK A 301      -2.404  -5.022 -22.676  1.00  0.00     0.174 HD
HETATM   27  H   HJK A 301      -1.110  -4.851 -21.578  1.00  0.00     0.174 HD
ENDBRANCH   7  25
TORSDOF 5
ENDMDL
MODEL 19
REMARK VINA RESULT:    -2.690      3.609      5.778
REMARK INTER + INTRA:          -3.592
REMARK INTER:                  -3.473
REMARK INTRA:                  -0.119
REMARK UNBOUND:                -0.273
REMARK  5 active torsions:
REMARK  status: ('A' for Active; 'I' for Inactive)
REMARK    1  A    between atoms: C_5  and  C_6 
REMARK    2  A    between atoms: C_6  and  C_7 
REMARK    3  A    between atoms: C_7  and  O_18 
REMARK    4  A    between atoms: N_11  and  C_16 
REMARK    5  A    between atoms: C_14  and  C_17 
ROOT
HETATM    1  C   HJK A 301      -0.338  -8.147 -24.711  1.00  0.00     0.106 A 
HETATM    2  C   HJK A 301      -2.074  -7.989 -23.474  1.00  0.00     0.182 A 
HETATM    3  C   HJK A 301      -0.347  -9.250 -23.849  1.00  0.00     0.151 A 
HETATM    4  N   HJK A 301       1.708  -8.961 -25.546  1.00  0.00    -0.189 N 
ATOM      5  HN  HJK A 301       2.527  -8.886 -26.148  1.00  0.00     0.184 HD
HETATM    6  N   HJK A 301      -1.464  -7.373 -24.463  1.00  0.00    -0.347 N 
HETATM    7  C   HJK A 301       1.598  -9.997 -24.684  1.00  0.00     0.678 A 
HETATM    8  C   HJK A 301       0.743  -8.030 -25.610  1.00  0.00     0.090 A 
HETATM    9  N   HJK A 301      -1.460  -9.138 -23.075  1.00  0.00    -0.336 N 
ATOM     10  HN  HJK A 301      -1.770  -9.782 -22.347  1.00  0.00     0.168 HD
HETATM   11  N   HJK A 301       0.587 -10.199 -23.804  1.00  0.00    -0.174 N 
ATOM     12  HN  HJK A 301       0.546 -10.998 -23.170  1.00  0.00     0.186 HD
HETATM   13  H   HJK A 301      -1.744  -6.548 -24.923  1.00  0.00     0.167 HD
ENDROOT
BRANCH   8  14
HETATM   14  C   HJK A 301       1.012  -6.978 -26.614  1.00  0.00    -0.006 C 
HETATM   15  C   HJK A 301       1.745  -7.241 -27.770  1.00  0.00     0.014 C 
HETATM   16  C   HJK A 301       1.977  -6.229 -28.693  1.00  0.00     0.001 C 
HETATM   17  C   HJK A 301       1.426  -4.976 -28.478  1.00  0.00     0.007 C 
HETATM   18  C   HJK A 301       0.769  -4.663 -27.295  1.00  0.00    -0.048 C 
HETATM   19  C   HJK A 301       0.521  -5.690 -26.416  1.00  0.00     0.021 C 
BRANCH  18  20
HETATM   20  C   HJK A 301       0.144  -3.300 -27.025  1.00  0.00     0.148 C 
BRANCH  20  21
HETATM   21  C   HJK A 301      -1.186  -3.202 -26.266  1.00  0.00     0.143 C 
HETATM   22  O   HJK A 301      -1.248  -2.405 -25.290  1.00  0.00    -0.650 OA
BRANCH  21  23
HETATM   23  O   HJK A 301      -2.022  -4.047 -26.484  1.00  0.00    -0.776 OA
HETATM   24  H   HJK A 301      -1.769  -4.946 -26.566  1.00  0.00     0.167 HD
ENDBRANCH  21  23
ENDBRANCH  20  21
ENDBRANCH  18  20
ENDBRANCH   8  14
BRANCH   7  25
HETATM   25  N   HJK A 301       2.619 -10.865 -24.700  1.00  0.00    -0.234 N 
HETATM   26  H   HJK A 301       2.485 -11.777 -25.046  1.00  0.00     0.174 HD
HETATM   27  H   HJK A 301       3.504 -10.590 -24.366  1.00  0.00     0.174 HD
ENDBRANCH   7  25
TORSDOF 5
ENDMDL
MODEL 20
REMARK VINA RESULT:    -2.464      3.655      6.199
REMARK INTER + INTRA:          -3.313
REMARK INTER:                  -3.023
REMARK INTRA:                  -0.290
REMARK UNBOUND:                -0.273
REMARK  5 active torsions:
REMARK  status: ('A' for Active; 'I' for Inactive)
REMARK    1  A    between atoms: C_5  and  C_6 
REMARK    2  A    between atoms: C_6  and  C_7 
REMARK    3  A    between atoms: C_7  and  O_18 
REMARK    4  A    between atoms: N_11  and  C_16 
REMARK    5  A    between atoms: C_14  and  C_17 
ROOT
HETATM    1  C   HJK A 301       1.544  -8.713 -25.644  1.00  0.00     0.106 A 
HETATM    2  C   HJK A 301       3.172 -10.098 -25.661  1.00  0.00     0.182 A 
HETATM    3  C   HJK A 301       1.204  -9.780 -24.802  1.00  0.00     0.151 A 
HETATM    4  N   HJK A 301      -0.583  -7.816 -25.176  1.00  0.00    -0.189 N 
ATOM      5  HN  HJK A 301      -1.311  -7.114 -25.304  1.00  0.00     0.184 HD
HETATM    6  N   HJK A 301       2.814  -8.934 -26.159  1.00  0.00    -0.347 N 
HETATM    7  C   HJK A 301      -0.808  -8.880 -24.374  1.00  0.00     0.678 A 
HETATM    8  C   HJK A 301       0.595  -7.682 -25.805  1.00  0.00     0.090 A 
HETATM    9  N   HJK A 301       2.252 -10.646 -24.819  1.00  0.00    -0.336 N 
ATOM     10  HN  HJK A 301       2.331 -11.525 -24.307  1.00  0.00     0.168 HD
HETATM   11  N   HJK A 301       0.051  -9.903 -24.144  1.00  0.00    -0.174 N 
ATOM     12  HN  HJK A 301      -0.162 -10.688 -23.528  1.00  0.00     0.186 HD
HETATM   13  H   HJK A 301       3.331  -8.352 -26.762  1.00  0.00     0.167 HD
ENDROOT
BRANCH   8  14
HETATM   14  C   HJK A 301       0.680  -6.456 -26.628  1.00  0.00    -0.006 C 
HETATM   15  C   HJK A 301       1.602  -6.335 -27.666  1.00  0.00     0.014 C 
HETATM   16  C   HJK A 301       1.653  -5.168 -28.421  1.00  0.00     0.001 C 
HETATM   17  C   HJK A 301       0.744  -4.155 -28.163  1.00  0.00     0.007 C 
HETATM   18  C   HJK A 301      -0.124  -4.212 -27.080  1.00  0.00    -0.048 C 
HETATM   19  C   HJK A 301      -0.180  -5.390 -26.374  1.00  0.00     0.021 C 
BRANCH  18  20
HETATM   20  C   HJK A 301      -1.142  -3.122 -26.769  1.00  0.00     0.148 C 
BRANCH  20  21
HETATM   21  C   HJK A 301      -1.065  -2.357 -25.442  1.00  0.00     0.143 C 
HETATM   22  O   HJK A 301      -2.026  -2.485 -24.633  1.00  0.00    -0.650 OA
BRANCH  21  23
HETATM   23  O   HJK A 301      -0.221  -1.499 -25.334  1.00  0.00    -0.776 OA
HETATM   24  H   HJK A 301      -0.056  -1.107 -24.499  1.00  0.00     0.167 HD
ENDBRANCH  21  23
ENDBRANCH  20  21
ENDBRANCH  18  20
ENDBRANCH   8  14
BRANCH   7  25
HETATM   25  N   HJK A 301      -2.018  -8.918 -23.798  1.00  0.00    -0.234 N 
HETATM   26  H   HJK A 301      -2.135  -8.595 -22.875  1.00  0.00     0.174 HD
HETATM   27  H   HJK A 301      -2.791  -9.268 -24.299  1.00  0.00     0.174 HD
ENDBRANCH   7  25
TORSDOF 5
ENDMDL
MODEL 21
REMARK VINA RESULT:    -2.300      4.407      6.729
REMARK INTER + INTRA:          -3.112
REMARK INTER:                  -2.743
REMARK INTRA:                  -0.368
REMARK UNBOUND:                -0.273
REMARK  5 active torsions:
REMARK  status: ('A' for Active; 'I' for Inactive)
REMARK    1  A    between atoms: C_5  and  C_6 
REMARK    2  A    between atoms: C_6  and  C_7 
REMARK    3  A    between atoms: C_7  and  O_18 
REMARK    4  A    between atoms: N_11  and  C_16 
REMARK    5  A    between atoms: C_14  and  C_17 
ROOT
HETATM    1  C   HJK A 301       1.154  -8.963 -24.838  1.00  0.00     0.106 A 
HETATM    2  C   HJK A 301       2.733  -9.915 -25.919  1.00  0.00     0.182 A 
HETATM    3  C   HJK A 301       1.263 -10.276 -24.364  1.00  0.00     0.151 A 
HETATM    4  N   HJK A 301      -0.662  -8.701 -23.362  1.00  0.00    -0.189 N 
ATOM      5  HN  HJK A 301      -1.429  -8.158 -22.967  1.00  0.00     0.184 HD
HETATM    6  N   HJK A 301       2.120  -8.756 -25.814  1.00  0.00    -0.347 N 
HETATM    7  C   HJK A 301      -0.464  -9.976 -22.961  1.00  0.00     0.678 A 
HETATM    8  C   HJK A 301       0.148  -8.148 -24.279  1.00  0.00     0.090 A 
HETATM    9  N   HJK A 301       2.275 -10.864 -25.055  1.00  0.00    -0.336 N 
ATOM     10  HN  HJK A 301       2.619 -11.818 -24.949  1.00  0.00     0.168 HD
HETATM   11  N   HJK A 301       0.488 -10.822 -23.427  1.00  0.00    -0.174 N 
ATOM     12  HN  HJK A 301       0.600 -11.780 -23.094  1.00  0.00     0.186 HD
HETATM   13  H   HJK A 301       2.305  -7.929 -26.315  1.00  0.00     0.167 HD
ENDROOT
BRANCH   8  14
HETATM   14  C   HJK A 301      -0.197  -6.744 -24.591  1.00  0.00    -0.006 C 
HETATM   15  C   HJK A 301      -0.565  -5.843 -23.593  1.00  0.00     0.014 C 
HETATM   16  C   HJK A 301      -0.881  -4.530 -23.923  1.00  0.00     0.001 C 
HETATM   17  C   HJK A 301      -0.772  -4.117 -25.241  1.00  0.00     0.007 C 
HETATM   18  C   HJK A 301      -0.494  -5.014 -26.265  1.00  0.00    -0.048 C 
HETATM   19  C   HJK A 301      -0.150  -6.296 -25.908  1.00  0.00     0.021 C 
BRANCH  18  20
HETATM   20  C   HJK A 301      -0.360  -4.597 -27.723  1.00  0.00     0.148 C 
BRANCH  20  21
HETATM   21  C   HJK A 301       1.031  -4.369 -28.331  1.00  0.00     0.143 C 
HETATM   22  O   HJK A 301       1.424  -3.178 -28.469  1.00  0.00    -0.650 OA
BRANCH  21  23
HETATM   23  O   HJK A 301       1.577  -5.310 -28.857  1.00  0.00    -0.776 OA
HETATM   24  H   HJK A 301       1.075  -6.057 -29.117  1.00  0.00     0.167 HD
ENDBRANCH  21  23
ENDBRANCH  20  21
ENDBRANCH  18  20
ENDBRANCH   8  14
BRANCH   7  25
HETATM   25  N   HJK A 301      -1.332 -10.430 -22.045  1.00  0.00    -0.234 N 
HETATM   26  H   HJK A 301      -1.386  -9.998 -21.162  1.00  0.00     0.174 HD
HETATM   27  H   HJK A 301      -1.915 -11.194 -22.256  1.00  0.00     0.174 HD
ENDBRANCH   7  25
TORSDOF 5
ENDMDL
MODEL 22
REMARK VINA RESULT:    -1.429      4.202      6.683
REMARK INTER + INTRA:          -2.036
REMARK INTER:                  -1.756
REMARK INTRA:                  -0.281
REMARK UNBOUND:                -0.273
REMARK  5 active torsions:
REMARK  status: ('A' for Active; 'I' for Inactive)
REMARK    1  A    between atoms: C_5  and  C_6 
REMARK    2  A    between atoms: C_6  and  C_7 
REMARK    3  A    between atoms: C_7  and  O_18 
REMARK    4  A    between atoms: N_11  and  C_16 
REMARK    5  A    between atoms: C_14  and  C_17 
ROOT
HETATM    1  C   HJK A 301       0.490  -8.611 -24.661  1.00  0.00     0.106 A 
HETATM    2  C   HJK A 301       1.633  -9.985 -25.834  1.00  0.00     0.182 A 
HETATM    3  C   HJK A 301       0.483  -9.844 -23.999  1.00  0.00     0.151 A 
HETATM    4  N   HJK A 301      -0.910  -7.810 -22.945  1.00  0.00    -0.189 N 
ATOM      5  HN  HJK A 301      -1.479  -7.081 -22.515  1.00  0.00     0.184 HD
HETATM    6  N   HJK A 301       1.251  -8.726 -25.818  1.00  0.00    -0.347 N 
HETATM    7  C   HJK A 301      -0.841  -9.034 -22.377  1.00  0.00     0.678 A 
HETATM    8  C   HJK A 301      -0.231  -7.550 -24.075  1.00  0.00     0.090 A 
HETATM    9  N   HJK A 301       1.219 -10.703 -24.753  1.00  0.00    -0.336 N 
ATOM     10  HN  HJK A 301       1.419 -11.683 -24.550  1.00  0.00     0.168 HD
HETATM   11  N   HJK A 301      -0.157 -10.101 -22.857  1.00  0.00    -0.174 N 
ATOM     12  HN  HJK A 301      -0.134 -11.009 -22.393  1.00  0.00     0.186 HD
HETATM   13  H   HJK A 301       1.457  -8.025 -26.477  1.00  0.00     0.167 HD
ENDROOT
BRANCH   8  14
HETATM   14  C   HJK A 301      -0.403  -6.161 -24.552  1.00  0.00    -0.006 C 
HETATM   15  C   HJK A 301      -0.834  -5.144 -23.703  1.00  0.00     0.014 C 
HETATM   16  C   HJK A 301      -0.982  -3.849 -24.185  1.00  0.00     0.001 C 
HETATM   17  C   HJK A 301      -0.644  -3.574 -25.500  1.00  0.00     0.007 C 
HETATM   18  C   HJK A 301      -0.298  -4.582 -26.391  1.00  0.00    -0.048 C 
HETATM   19  C   HJK A 301      -0.123  -5.846 -25.880  1.00  0.00     0.021 C 
BRANCH  18  20
HETATM   20  C   HJK A 301       0.086  -4.318 -27.841  1.00  0.00     0.148 C 
BRANCH  20  21
HETATM   21  C   HJK A 301       1.459  -4.761 -28.364  1.00  0.00     0.143 C 
HETATM   22  O   HJK A 301       1.570  -5.941 -28.795  1.00  0.00    -0.650 OA
BRANCH  21  23
HETATM   23  O   HJK A 301       2.408  -4.052 -28.124  1.00  0.00    -0.776 OA
HETATM   24  H   HJK A 301       3.131  -4.021 -28.719  1.00  0.00     0.167 HD
ENDBRANCH  21  23
ENDBRANCH  20  21
ENDBRANCH  18  20
ENDBRANCH   8  14
BRANCH   7  25
HETATM   25  N   HJK A 301      -1.559  -9.185 -21.254  1.00  0.00    -0.234 N 
HETATM   26  H   HJK A 301      -1.389  -8.603 -20.479  1.00  0.00     0.174 HD
HETATM   27  H   HJK A 301      -2.257  -9.877 -21.206  1.00  0.00     0.174 HD
ENDBRANCH   7  25
TORSDOF 5
ENDMDL
MODEL 23
REMARK VINA RESULT:    -1.413      2.882      4.553
REMARK INTER + INTRA:          -2.017
REMARK INTER:                  -1.847
REMARK INTRA:                  -0.170
REMARK UNBOUND:                -0.273
REMARK  5 active torsions:
REMARK  status: ('A' for Active; 'I' for Inactive)
REMARK    1  A    between atoms: C_5  and  C_6 
REMARK    2  A    between atoms: C_6  and  C_7 
REMARK    3  A    between atoms: C_7  and  O_18 
REMARK    4  A    between atoms: N_11  and  C_16 
REMARK    5  A    between atoms: C_14  and  C_17 
ROOT
HETATM    1  C   HJK A 301       0.211  -5.938 -25.110  1.00  0.00     0.106 A 
HETATM    2  C   HJK A 301      -0.585  -6.527 -23.216  1.00  0.00     0.182 A 
HETATM    3  C   HJK A 301      -0.603  -4.897 -24.649  1.00  0.00     0.151 A 
HETATM    4  N   HJK A 301       0.556  -4.654 -27.054  1.00  0.00    -0.189 N 
ATOM      5  HN  HJK A 301       0.947  -4.521 -27.986  1.00  0.00     0.184 HD
HETATM    6  N   HJK A 301       0.220  -6.955 -24.164  1.00  0.00    -0.347 N 
HETATM    7  C   HJK A 301      -0.235  -3.701 -26.513  1.00  0.00     0.678 A 
HETATM    8  C   HJK A 301       0.827  -5.776 -26.369  1.00  0.00     0.090 A 
HETATM    9  N   HJK A 301      -1.095  -5.284 -23.442  1.00  0.00    -0.336 N 
ATOM     10  HN  HJK A 301      -1.717  -4.753 -22.832  1.00  0.00     0.168 HD
HETATM   11  N   HJK A 301      -0.848  -3.763 -25.306  1.00  0.00    -0.174 N 
ATOM     12  HN  HJK A 301      -1.438  -3.017 -24.937  1.00  0.00     0.186 HD
HETATM   13  H   HJK A 301       0.717  -7.804 -24.195  1.00  0.00     0.167 HD
ENDROOT
BRANCH   8  14
HETATM   14  C   HJK A 301       1.719  -6.704 -27.098  1.00  0.00    -0.006 C 
HETATM   15  C   HJK A 301       2.330  -6.341 -28.296  1.00  0.00     0.014 C 
HETATM   16  C   HJK A 301       3.164  -7.238 -28.953  1.00  0.00     0.001 C 
HETATM   17  C   HJK A 301       3.422  -8.470 -28.376  1.00  0.00     0.007 C 
HETATM   18  C   HJK A 301       2.759  -8.892 -27.230  1.00  0.00    -0.048 C 
HETATM   19  C   HJK A 301       1.969  -7.973 -26.581  1.00  0.00     0.021 C 
BRANCH  18  20
HETATM   20  C   HJK A 301       3.021 -10.236 -26.563  1.00  0.00     0.148 C 
BRANCH  20  21
HETATM   21  C   HJK A 301       2.087 -10.736 -25.453  1.00  0.00     0.143 C 
HETATM   22  O   HJK A 301       0.861 -10.853 -25.725  1.00  0.00    -0.650 OA
BRANCH  21  23
HETATM   23  O   HJK A 301       2.520 -10.769 -24.325  1.00  0.00    -0.776 OA
HETATM   24  H   HJK A 301       1.936 -10.896 -23.603  1.00  0.00     0.167 HD
ENDBRANCH  21  23
ENDBRANCH  20  21
ENDBRANCH  18  20
ENDBRANCH   8  14
BRANCH   7  25
HETATM   25  N   HJK A 301      -0.443  -2.624 -27.284  1.00  0.00    -0.234 N 
HETATM   26  H   HJK A 301      -0.482  -2.721 -28.263  1.00  0.00     0.174 HD
HETATM   27  H   HJK A 301      -0.557  -1.738 -26.871  1.00  0.00     0.174 HD
ENDBRANCH   7  25
TORSDOF 5
ENDMDL
