MODEL 1
REMARK VINA RESULT:    -5.601      0.000      0.000
REMARK INTER + INTRA:          -6.621
REMARK INTER:                  -6.747
REMARK INTRA:                   0.125
REMARK UNBOUND:                 0.125
REMARK  4 active torsions:
REMARK  status: ('A' for Active; 'I' for Inactive)
REMARK       I    between atoms: C_1  and  N_13 
REMARK    1  A    between atoms: C_1  and  C_17 
REMARK    2  A    between atoms: C_2  and  N_13 
REMARK    3  A    between atoms: C_8  and  N_24 
REMARK    4  A    between atoms: N_18  and  C_25 
ROOT
ATOM      1  C   HJ0 A1101       7.732   1.838  -2.507  1.00  0.00     0.111 A 
ATOM      2  C   HJ0 A1101      10.303   5.412  -3.343  1.00  0.00     0.183 A 
ATOM      3  C   HJ0 A1101      11.047   3.205  -3.344  1.00  0.00     0.115 A 
ATOM      4  C   HJ0 A1101       9.724   2.800  -3.019  1.00  0.00     0.069 A 
ATOM      5  C   HJ0 A1101       9.030   1.523  -2.786  1.00  0.00     0.065 A 
ATOM      6  N   HJ0 A1101       7.556   3.176  -2.577  1.00  0.00    -0.332 N 
ATOM      7  C   HJ0 A1101       8.728   3.797  -2.879  1.00  0.00     0.124 A 
ATOM      8  N   HJ0 A1101       9.058   5.087  -3.050  1.00  0.00    -0.338 N 
ATOM      9  HN  HJ0 A1101       8.349   5.814  -2.954  1.00  0.00     0.168 HD
ATOM     10  N   HJ0 A1101      11.283   4.514  -3.503  1.00  0.00    -0.338 N 
ATOM     11  HN  HJ0 A1101      12.220   4.831  -3.750  1.00  0.00     0.168 HD
ENDROOT
BRANCH   5  12
ATOM     12  C   HJ0 A1101       9.630   0.192  -2.736  1.00  0.00     0.259 C 
ATOM     13  N   HJ0 A1101       8.895  -0.912  -2.989  1.00  0.00    -0.308 N 
ATOM     14  H   HJ0 A1101       7.960  -0.789  -3.272  1.00  0.00     0.170 HD
ATOM     15  O   HJ0 A1101      10.794   0.124  -2.373  1.00  0.00    -0.267 OA
BRANCH  13  16
ATOM     16  C   HJ0 A1101       9.372  -2.202  -2.874  1.00  0.00     0.124 A 
ATOM     17  C   HJ0 A1101       8.801  -3.426  -3.110  1.00  0.00     0.076 A 
ATOM     18  C   HJ0 A1101       9.779  -4.389  -2.885  1.00  0.00     0.025 A 
ATOM     19  C   HJ0 A1101       9.635  -5.880  -3.008  1.00  0.00     0.070 C 
ATOM     20  N   HJ0 A1101      10.876  -3.761  -2.565  1.00  0.00    -0.304 N 
ATOM     21  N   HJ0 A1101      10.643  -2.400  -2.570  1.00  0.00    -0.285 N 
ATOM     22  H   HJ0 A1101      11.736  -4.190  -2.354  1.00  0.00     0.186 HD
ATOM     23  HN  HJ0 A1101      11.332  -1.673  -2.373  1.00  0.00     0.188 HD
ENDBRANCH  13  16
ENDBRANCH   5  12
BRANCH   6  24
ATOM     24  C   HJ0 A1101       6.279   3.839  -2.358  1.00  0.00     0.035 A 
ATOM     25  C   HJ0 A1101       6.088   5.157  -3.097  1.00  0.00     0.039 C 
ATOM     26  C   HJ0 A1101       5.038   2.958  -2.198  1.00  0.00     0.033 A 
ATOM     27  C   HJ0 A1101       5.640   3.663  -0.986  1.00  0.00     0.033 A 
ENDBRANCH   6  24
BRANCH   3  28
ATOM     28  N   HJ0 A1101      12.083   2.317  -3.536  1.00  0.00    -0.385 N 
ATOM     29  H   HJ0 A1101      12.090   1.733  -4.328  1.00  0.00     0.157 HD
ATOM     30  H   HJ0 A1101      12.817   2.268  -2.881  1.00  0.00     0.157 HD
ENDBRANCH   3  28
TORSDOF 4
ENDMDL
MODEL 2
REMARK VINA RESULT:    -5.424      0.516      0.516
REMARK INTER + INTRA:          -6.409
REMARK INTER:                  -6.298
REMARK INTRA:                  -0.111
REMARK UNBOUND:                 0.125
REMARK  4 active torsions:
REMARK  status: ('A' for Active; 'I' for Inactive)
REMARK       I    between atoms: C_1  and  N_13 
REMARK    1  A    between atoms: C_1  and  C_17 
REMARK    2  A    between atoms: C_2  and  N_13 
REMARK    3  A    between atoms: C_8  and  N_24 
REMARK    4  A    between atoms: N_18  and  C_25 
ROOT
ATOM      1  C   HJ0 A1101       7.682   1.398  -2.609  1.00  0.00     0.111 A 
ATOM      2  C   HJ0 A1101      10.363   4.949  -3.139  1.00  0.00     0.183 A 
ATOM      3  C   HJ0 A1101      11.043   2.729  -3.306  1.00  0.00     0.115 A 
ATOM      4  C   HJ0 A1101       9.706   2.338  -3.026  1.00  0.00     0.069 A 
ATOM      5  C   HJ0 A1101       8.974   1.068  -2.899  1.00  0.00     0.065 A 
ATOM      6  N   HJ0 A1101       7.545   2.742  -2.576  1.00  0.00    -0.332 N 
ATOM      7  C   HJ0 A1101       8.737   3.350  -2.818  1.00  0.00     0.124 A 
ATOM      8  N   HJ0 A1101       9.106   4.639  -2.884  1.00  0.00    -0.338 N 
ATOM      9  HN  HJ0 A1101       8.416   5.377  -2.738  1.00  0.00     0.168 HD
ATOM     10  N   HJ0 A1101      11.318   4.039  -3.360  1.00  0.00    -0.338 N 
ATOM     11  HN  HJ0 A1101      12.267   4.347  -3.572  1.00  0.00     0.168 HD
ENDROOT
BRANCH   5  12
ATOM     12  C   HJ0 A1101       9.535  -0.280  -2.948  1.00  0.00     0.259 C 
ATOM     13  N   HJ0 A1101       8.743  -1.368  -2.838  1.00  0.00    -0.308 N 
ATOM     14  H   HJ0 A1101       7.770  -1.227  -2.790  1.00  0.00     0.170 HD
ATOM     15  O   HJ0 A1101      10.752  -0.370  -3.006  1.00  0.00    -0.267 OA
BRANCH  13  16
ATOM     16  C   HJ0 A1101       9.212  -2.665  -2.788  1.00  0.00     0.124 A 
ATOM     17  C   HJ0 A1101       8.729  -3.846  -3.290  1.00  0.00     0.076 A 
ATOM     18  C   HJ0 A1101       9.658  -4.835  -2.985  1.00  0.00     0.025 A 
ATOM     19  C   HJ0 A1101       9.574  -6.298  -3.322  1.00  0.00     0.070 C 
ATOM     20  N   HJ0 A1101      10.649  -4.259  -2.365  1.00  0.00    -0.304 N 
ATOM     21  N   HJ0 A1101      10.395  -2.907  -2.248  1.00  0.00    -0.285 N 
ATOM     22  H   HJ0 A1101      11.455  -4.717  -2.032  1.00  0.00     0.186 HD
ATOM     23  HN  HJ0 A1101      11.011  -2.216  -1.820  1.00  0.00     0.188 HD
ENDBRANCH  13  16
ENDBRANCH   5  12
BRANCH   6  24
ATOM     24  C   HJ0 A1101       6.284   3.422  -2.318  1.00  0.00     0.035 A 
ATOM     25  C   HJ0 A1101       5.939   4.552  -3.280  1.00  0.00     0.039 C 
ATOM     26  C   HJ0 A1101       5.115   2.582  -1.800  1.00  0.00     0.033 A 
ATOM     27  C   HJ0 A1101       5.850   3.535  -0.862  1.00  0.00     0.033 A 
ENDBRANCH   6  24
BRANCH   3  28
ATOM     28  N   HJ0 A1101      12.057   1.829  -3.557  1.00  0.00    -0.385 N 
ATOM     29  H   HJ0 A1101      11.863   0.864  -3.585  1.00  0.00     0.157 HD
ATOM     30  H   HJ0 A1101      12.975   2.151  -3.709  1.00  0.00     0.157 HD
ENDBRANCH   3  28
TORSDOF 4
ENDMDL
MODEL 3
REMARK VINA RESULT:    -5.131      1.236      3.420
REMARK INTER + INTRA:          -6.055
REMARK INTER:                  -6.097
REMARK INTRA:                   0.041
REMARK UNBOUND:                 0.125
REMARK  4 active torsions:
REMARK  status: ('A' for Active; 'I' for Inactive)
REMARK       I    between atoms: C_1  and  N_13 
REMARK    1  A    between atoms: C_1  and  C_17 
REMARK    2  A    between atoms: C_2  and  N_13 
REMARK    3  A    between atoms: C_8  and  N_24 
REMARK    4  A    between atoms: N_18  and  C_25 
ROOT
ATOM      1  C   HJ0 A1101      10.748   3.215  -3.756  1.00  0.00     0.111 A 
ATOM      2  C   HJ0 A1101       6.523   4.382  -2.820  1.00  0.00     0.183 A 
ATOM      3  C   HJ0 A1101       7.356   2.209  -2.737  1.00  0.00     0.115 A 
ATOM      4  C   HJ0 A1101       8.620   2.719  -3.137  1.00  0.00     0.069 A 
ATOM      5  C   HJ0 A1101       9.959   2.162  -3.392  1.00  0.00     0.065 A 
ATOM      6  N   HJ0 A1101      10.034   4.362  -3.719  1.00  0.00    -0.332 N 
ATOM      7  C   HJ0 A1101       8.747   4.113  -3.355  1.00  0.00     0.124 A 
ATOM      8  N   HJ0 A1101       7.678   4.906  -3.184  1.00  0.00    -0.338 N 
ATOM      9  HN  HJ0 A1101       7.758   5.912  -3.336  1.00  0.00     0.168 HD
ATOM     10  N   HJ0 A1101       6.346   3.077  -2.585  1.00  0.00    -0.338 N 
ATOM     11  HN  HJ0 A1101       5.432   2.738  -2.286  1.00  0.00     0.168 HD
ENDROOT
BRANCH   5  12
ATOM     12  C   HJ0 A1101      10.342   0.753  -3.384  1.00  0.00     0.259 C 
ATOM     13  N   HJ0 A1101       9.481  -0.200  -2.968  1.00  0.00    -0.308 N 
ATOM     14  H   HJ0 A1101       8.566   0.076  -2.734  1.00  0.00     0.170 HD
ATOM     15  O   HJ0 A1101      11.497   0.493  -3.686  1.00  0.00    -0.267 OA
BRANCH  13  16
ATOM     16  C   HJ0 A1101       9.804  -1.537  -2.850  1.00  0.00     0.124 A 
ATOM     17  C   HJ0 A1101       9.049  -2.680  -2.887  1.00  0.00     0.076 A 
ATOM     18  C   HJ0 A1101       9.922  -3.757  -2.778  1.00  0.00     0.025 A 
ATOM     19  C   HJ0 A1101       9.569  -5.218  -2.764  1.00  0.00     0.070 C 
ATOM     20  N   HJ0 A1101      11.130  -3.271  -2.712  1.00  0.00    -0.304 N 
ATOM     21  N   HJ0 A1101      11.075  -1.893  -2.772  1.00  0.00    -0.285 N 
ATOM     22  H   HJ0 A1101      11.954  -3.805  -2.632  1.00  0.00     0.186 HD
ATOM     23  HN  HJ0 A1101      11.876  -1.260  -2.759  1.00  0.00     0.188 HD
ENDBRANCH  13  16
ENDBRANCH   5  12
BRANCH   6  24
ATOM     24  C   HJ0 A1101      10.588   5.672  -4.027  1.00  0.00     0.035 A 
ATOM     25  C   HJ0 A1101       9.925   6.409  -5.184  1.00  0.00     0.039 C 
ATOM     26  C   HJ0 A1101      11.078   6.531  -2.860  1.00  0.00     0.033 A 
ATOM     27  C   HJ0 A1101      12.082   5.859  -3.793  1.00  0.00     0.033 A 
ENDBRANCH   6  24
BRANCH   3  28
ATOM     28  N   HJ0 A1101       7.130   0.876  -2.467  1.00  0.00    -0.385 N 
ATOM     29  H   HJ0 A1101       7.124   0.219  -3.200  1.00  0.00     0.157 HD
ATOM     30  H   HJ0 A1101       6.974   0.581  -1.540  1.00  0.00     0.157 HD
ENDBRANCH   3  28
TORSDOF 4
ENDMDL
MODEL 4
REMARK VINA RESULT:    -4.961      1.810      3.655
REMARK INTER + INTRA:          -5.850
REMARK INTER:                  -6.384
REMARK INTRA:                   0.533
REMARK UNBOUND:                 0.125
REMARK  4 active torsions:
REMARK  status: ('A' for Active; 'I' for Inactive)
REMARK       I    between atoms: C_1  and  N_13 
REMARK    1  A    between atoms: C_1  and  C_17 
REMARK    2  A    between atoms: C_2  and  N_13 
REMARK    3  A    between atoms: C_8  and  N_24 
REMARK    4  A    between atoms: N_18  and  C_25 
ROOT
ATOM      1  C   HJ0 A1101       8.157   3.104  -2.945  1.00  0.00     0.111 A 
ATOM      2  C   HJ0 A1101       3.960   2.908  -1.386  1.00  0.00     0.183 A 
ATOM      3  C   HJ0 A1101       5.432   1.106  -1.483  1.00  0.00     0.115 A 
ATOM      4  C   HJ0 A1101       6.402   1.979  -2.044  1.00  0.00     0.069 A 
ATOM      5  C   HJ0 A1101       7.796   1.864  -2.502  1.00  0.00     0.065 A 
ATOM      6  N   HJ0 A1101       7.134   3.971  -2.775  1.00  0.00    -0.332 N 
ATOM      7  C   HJ0 A1101       6.056   3.339  -2.239  1.00  0.00     0.124 A 
ATOM      8  N   HJ0 A1101       4.829   3.761  -1.896  1.00  0.00    -0.338 N 
ATOM      9  HN  HJ0 A1101       4.568   4.738  -2.030  1.00  0.00     0.168 HD
ATOM     10  N   HJ0 A1101       4.235   1.618  -1.165  1.00  0.00    -0.338 N 
ATOM     11  HN  HJ0 A1101       3.524   1.016  -0.748  1.00  0.00     0.168 HD
ENDROOT
BRANCH   5  12
ATOM     12  C   HJ0 A1101       8.598   0.646  -2.587  1.00  0.00     0.259 C 
ATOM     13  N   HJ0 A1101       8.012  -0.567  -2.680  1.00  0.00    -0.308 N 
ATOM     14  H   HJ0 A1101       7.031  -0.601  -2.756  1.00  0.00     0.170 HD
ATOM     15  O   HJ0 A1101       9.809   0.773  -2.484  1.00  0.00    -0.267 OA
BRANCH  13  16
ATOM     16  C   HJ0 A1101       8.703  -1.762  -2.676  1.00  0.00     0.124 A 
ATOM     17  C   HJ0 A1101       8.376  -3.023  -3.103  1.00  0.00     0.076 A 
ATOM     18  C   HJ0 A1101       9.493  -3.828  -2.906  1.00  0.00     0.025 A 
ATOM     19  C   HJ0 A1101       9.626  -5.294  -3.215  1.00  0.00     0.070 C 
ATOM     20  N   HJ0 A1101      10.437  -3.071  -2.420  1.00  0.00    -0.304 N 
ATOM     21  N   HJ0 A1101       9.966  -1.780  -2.286  1.00  0.00    -0.285 N 
ATOM     22  H   HJ0 A1101      11.344  -3.374  -2.185  1.00  0.00     0.186 HD
ATOM     23  HN  HJ0 A1101      10.500  -0.980  -1.945  1.00  0.00     0.188 HD
ENDBRANCH  13  16
ENDBRANCH   5  12
BRANCH   6  24
ATOM     24  C   HJ0 A1101       7.201   5.383  -3.122  1.00  0.00     0.035 A 
ATOM     25  C   HJ0 A1101       5.864   6.112  -3.166  1.00  0.00     0.039 C 
ATOM     26  C   HJ0 A1101       8.402   6.184  -2.617  1.00  0.00     0.033 A 
ATOM     27  C   HJ0 A1101       8.301   5.801  -4.090  1.00  0.00     0.033 A 
ENDBRANCH   6  24
BRANCH   3  28
ATOM     28  N   HJ0 A1101       5.674  -0.225  -1.220  1.00  0.00    -0.385 N 
ATOM     29  H   HJ0 A1101       6.357  -0.712  -1.735  1.00  0.00     0.157 HD
ATOM     30  H   HJ0 A1101       5.164  -0.689  -0.517  1.00  0.00     0.157 HD
ENDBRANCH   3  28
TORSDOF 4
ENDMDL
MODEL 5
REMARK VINA RESULT:    -4.960      1.540      3.440
REMARK INTER + INTRA:          -5.849
REMARK INTER:                  -5.762
REMARK INTRA:                  -0.087
REMARK UNBOUND:                 0.125
REMARK  4 active torsions:
REMARK  status: ('A' for Active; 'I' for Inactive)
REMARK       I    between atoms: C_1  and  N_13 
REMARK    1  A    between atoms: C_1  and  C_17 
REMARK    2  A    between atoms: C_2  and  N_13 
REMARK    3  A    between atoms: C_8  and  N_24 
REMARK    4  A    between atoms: N_18  and  C_25 
ROOT
ATOM      1  C   HJ0 A1101       9.205   2.189  -3.034  1.00  0.00     0.111 A 
ATOM      2  C   HJ0 A1101       4.865   2.510  -1.963  1.00  0.00     0.183 A 
ATOM      3  C   HJ0 A1101       6.116   0.547  -1.885  1.00  0.00     0.115 A 
ATOM      4  C   HJ0 A1101       7.240   1.291  -2.334  1.00  0.00     0.069 A 
ATOM      5  C   HJ0 A1101       8.654   1.007  -2.630  1.00  0.00     0.065 A 
ATOM      6  N   HJ0 A1101       8.279   3.172  -2.984  1.00  0.00    -0.332 N 
ATOM      7  C   HJ0 A1101       7.080   2.679  -2.572  1.00  0.00     0.124 A 
ATOM      8  N   HJ0 A1101       5.881   3.247  -2.373  1.00  0.00    -0.338 N 
ATOM      9  HN  HJ0 A1101       5.754   4.246  -2.538  1.00  0.00     0.168 HD
ATOM     10  N   HJ0 A1101       4.959   1.200  -1.707  1.00  0.00    -0.338 N 
ATOM     11  HN  HJ0 A1101       4.141   0.692  -1.372  1.00  0.00     0.168 HD
ENDROOT
BRANCH   5  12
ATOM     12  C   HJ0 A1101       9.310  -0.297  -2.619  1.00  0.00     0.259 C 
ATOM     13  N   HJ0 A1101       8.632  -1.421  -2.936  1.00  0.00    -0.308 N 
ATOM     14  H   HJ0 A1101       7.699  -1.327  -3.239  1.00  0.00     0.170 HD
ATOM     15  O   HJ0 A1101      10.468  -0.330  -2.230  1.00  0.00    -0.267 OA
BRANCH  13  16
ATOM     16  C   HJ0 A1101       9.163  -2.693  -2.862  1.00  0.00     0.124 A 
ATOM     17  C   HJ0 A1101       8.709  -3.913  -3.289  1.00  0.00     0.076 A 
ATOM     18  C   HJ0 A1101       9.698  -4.847  -3.001  1.00  0.00     0.025 A 
ATOM     19  C   HJ0 A1101       9.664  -6.325  -3.274  1.00  0.00     0.070 C 
ATOM     20  N   HJ0 A1101      10.695  -4.202  -2.461  1.00  0.00    -0.304 N 
ATOM     21  N   HJ0 A1101      10.384  -2.859  -2.383  1.00  0.00    -0.285 N 
ATOM     22  H   HJ0 A1101      11.538  -4.610  -2.157  1.00  0.00     0.186 HD
ATOM     23  HN  HJ0 A1101      10.991  -2.124  -2.019  1.00  0.00     0.188 HD
ENDBRANCH  13  16
ENDBRANCH   5  12
BRANCH   6  24
ATOM     24  C   HJ0 A1101       8.551   4.560  -3.326  1.00  0.00     0.035 A 
ATOM     25  C   HJ0 A1101       8.767   5.497  -2.144  1.00  0.00     0.039 C 
ATOM     26  C   HJ0 A1101       9.384   4.835  -4.579  1.00  0.00     0.033 A 
ATOM     27  C   HJ0 A1101       7.882   5.101  -4.583  1.00  0.00     0.033 A 
ENDBRANCH   6  24
BRANCH   3  28
ATOM     28  N   HJ0 A1101       6.169  -0.799  -1.592  1.00  0.00    -0.385 N 
ATOM     29  H   HJ0 A1101       5.544  -1.423  -2.027  1.00  0.00     0.157 HD
ATOM     30  H   HJ0 A1101       6.831  -1.136  -0.946  1.00  0.00     0.157 HD
ENDBRANCH   3  28
TORSDOF 4
ENDMDL
MODEL 6
REMARK VINA RESULT:    -4.815      2.101      6.880
REMARK INTER + INTRA:          -5.675
REMARK INTER:                  -6.390
REMARK INTRA:                   0.715
REMARK UNBOUND:                 0.125
REMARK  4 active torsions:
REMARK  status: ('A' for Active; 'I' for Inactive)
REMARK       I    between atoms: C_1  and  N_13 
REMARK    1  A    between atoms: C_1  and  C_17 
REMARK    2  A    between atoms: C_2  and  N_13 
REMARK    3  A    between atoms: C_8  and  N_24 
REMARK    4  A    between atoms: N_18  and  C_25 
ROOT
ATOM      1  C   HJ0 A1101       7.886  -1.343  -2.385  1.00  0.00     0.111 A 
ATOM      2  C   HJ0 A1101      11.807   0.537  -3.469  1.00  0.00     0.183 A 
ATOM      3  C   HJ0 A1101       9.855   1.710  -2.984  1.00  0.00     0.115 A 
ATOM      4  C   HJ0 A1101       9.203   0.465  -2.781  1.00  0.00     0.069 A 
ATOM      5  C   HJ0 A1101       7.852   0.022  -2.397  1.00  0.00     0.065 A 
ATOM      6  N   HJ0 A1101       9.129  -1.777  -2.693  1.00  0.00    -0.332 N 
ATOM      7  C   HJ0 A1101       9.954  -0.725  -2.942  1.00  0.00     0.124 A 
ATOM      8  N   HJ0 A1101      11.250  -0.645  -3.284  1.00  0.00    -0.338 N 
ATOM      9  HN  HJ0 A1101      11.802  -1.495  -3.401  1.00  0.00     0.168 HD
ATOM     10  N   HJ0 A1101      11.153   1.694  -3.316  1.00  0.00    -0.338 N 
ATOM     11  HN  HJ0 A1101      11.648   2.575  -3.455  1.00  0.00     0.168 HD
ENDROOT
BRANCH   5  12
ATOM     12  C   HJ0 A1101       6.675   0.862  -2.192  1.00  0.00     0.259 C 
ATOM     13  N   HJ0 A1101       6.783   2.206  -2.126  1.00  0.00    -0.308 N 
ATOM     14  H   HJ0 A1101       7.668   2.607  -2.286  1.00  0.00     0.170 HD
ATOM     15  O   HJ0 A1101       5.614   0.288  -2.000  1.00  0.00    -0.267 OA
BRANCH  13  16
ATOM     16  C   HJ0 A1101       5.730   3.054  -1.849  1.00  0.00     0.124 A 
ATOM     17  C   HJ0 A1101       5.432   4.327  -2.259  1.00  0.00     0.076 A 
ATOM     18  C   HJ0 A1101       4.200   4.662  -1.707  1.00  0.00     0.025 A 
ATOM     19  C   HJ0 A1101       3.453   5.958  -1.864  1.00  0.00     0.070 C 
ATOM     20  N   HJ0 A1101       3.782   3.627  -1.035  1.00  0.00    -0.304 N 
ATOM     21  N   HJ0 A1101       4.714   2.612  -1.126  1.00  0.00    -0.285 N 
ATOM     22  H   HJ0 A1101       2.932   3.576  -0.539  1.00  0.00     0.186 HD
ATOM     23  HN  HJ0 A1101       4.634   1.685  -0.709  1.00  0.00     0.188 HD
ENDBRANCH  13  16
ENDBRANCH   5  12
BRANCH   6  24
ATOM     24  C   HJ0 A1101       9.508  -3.181  -2.741  1.00  0.00     0.035 A 
ATOM     25  C   HJ0 A1101       8.513  -4.106  -3.431  1.00  0.00     0.039 C 
ATOM     26  C   HJ0 A1101      10.990  -3.513  -2.923  1.00  0.00     0.033 A 
ATOM     27  C   HJ0 A1101      10.320  -3.715  -1.568  1.00  0.00     0.033 A 
ENDBRANCH   6  24
BRANCH   3  28
ATOM     28  N   HJ0 A1101       9.228   2.927  -2.821  1.00  0.00    -0.385 N 
ATOM     29  H   HJ0 A1101       9.662   3.751  -3.139  1.00  0.00     0.157 HD
ATOM     30  H   HJ0 A1101       8.346   2.972  -2.386  1.00  0.00     0.157 HD
ENDBRANCH   3  28
TORSDOF 4
ENDMDL
MODEL 7
REMARK VINA RESULT:    -4.779      1.451      3.677
REMARK INTER + INTRA:          -5.631
REMARK INTER:                  -5.788
REMARK INTRA:                   0.157
REMARK UNBOUND:                 0.125
REMARK  4 active torsions:
REMARK  status: ('A' for Active; 'I' for Inactive)
REMARK       I    between atoms: C_1  and  N_13 
REMARK    1  A    between atoms: C_1  and  C_17 
REMARK    2  A    between atoms: C_2  and  N_13 
REMARK    3  A    between atoms: C_8  and  N_24 
REMARK    4  A    between atoms: N_18  and  C_25 
ROOT
ATOM      1  C   HJ0 A1101       9.739   3.387  -3.399  1.00  0.00     0.111 A 
ATOM      2  C   HJ0 A1101       5.910   5.631  -2.778  1.00  0.00     0.183 A 
ATOM      3  C   HJ0 A1101       6.178   3.340  -2.462  1.00  0.00     0.115 A 
ATOM      4  C   HJ0 A1101       7.539   3.486  -2.843  1.00  0.00     0.069 A 
ATOM      5  C   HJ0 A1101       8.705   2.598  -2.982  1.00  0.00     0.065 A 
ATOM      6  N   HJ0 A1101       9.329   4.671  -3.499  1.00  0.00    -0.332 N 
ATOM      7  C   HJ0 A1101       8.012   4.779  -3.177  1.00  0.00     0.124 A 
ATOM      8  N   HJ0 A1101       7.168   5.821  -3.131  1.00  0.00    -0.338 N 
ATOM      9  HN  HJ0 A1101       7.497   6.757  -3.367  1.00  0.00     0.168 HD
ATOM     10  N   HJ0 A1101       5.411   4.438  -2.437  1.00  0.00    -0.338 N 
ATOM     11  HN  HJ0 A1101       4.434   4.363  -2.154  1.00  0.00     0.168 HD
ENDROOT
BRANCH   5  12
ATOM     12  C   HJ0 A1101       8.729   1.146  -2.829  1.00  0.00     0.259 C 
ATOM     13  N   HJ0 A1101       9.894   0.462  -2.862  1.00  0.00    -0.308 N 
ATOM     14  H   HJ0 A1101      10.730   0.978  -2.925  1.00  0.00     0.170 HD
ATOM     15  O   HJ0 A1101       7.649   0.580  -2.757  1.00  0.00    -0.267 OA
BRANCH  13  16
ATOM     16  C   HJ0 A1101       9.984  -0.914  -2.812  1.00  0.00     0.124 A 
ATOM     17  C   HJ0 A1101       9.038  -1.906  -2.825  1.00  0.00     0.076 A 
ATOM     18  C   HJ0 A1101       9.713  -3.122  -2.817  1.00  0.00     0.025 A 
ATOM     19  C   HJ0 A1101       9.110  -4.499  -2.821  1.00  0.00     0.070 C 
ATOM     20  N   HJ0 A1101      10.989  -2.857  -2.832  1.00  0.00    -0.304 N 
ATOM     21  N   HJ0 A1101      11.174  -1.489  -2.845  1.00  0.00    -0.285 N 
ATOM     22  H   HJ0 A1101      11.710  -3.528  -2.834  1.00  0.00     0.186 HD
ATOM     23  HN  HJ0 A1101      12.072  -1.005  -2.875  1.00  0.00     0.188 HD
ENDBRANCH  13  16
ENDBRANCH   5  12
BRANCH   6  24
ATOM     24  C   HJ0 A1101      10.197   5.770  -3.895  1.00  0.00     0.035 A 
ATOM     25  C   HJ0 A1101       9.688   6.624  -5.050  1.00  0.00     0.039 C 
ATOM     26  C   HJ0 A1101      10.972   6.498  -2.795  1.00  0.00     0.033 A 
ATOM     27  C   HJ0 A1101      11.697   5.550  -3.746  1.00  0.00     0.033 A 
ENDBRANCH   6  24
BRANCH   3  28
ATOM     28  N   HJ0 A1101       5.624   2.136  -2.085  1.00  0.00    -0.385 N 
ATOM     29  H   HJ0 A1101       4.676   2.091  -1.822  1.00  0.00     0.157 HD
ATOM     30  H   HJ0 A1101       6.176   1.320  -2.078  1.00  0.00     0.157 HD
ENDBRANCH   3  28
TORSDOF 4
ENDMDL
MODEL 8
REMARK VINA RESULT:    -4.574      0.453      1.030
REMARK INTER + INTRA:          -5.384
REMARK INTER:                  -5.698
REMARK INTRA:                   0.314
REMARK UNBOUND:                 0.125
REMARK  4 active torsions:
REMARK  status: ('A' for Active; 'I' for Inactive)
REMARK       I    between atoms: C_1  and  N_13 
REMARK    1  A    between atoms: C_1  and  C_17 
REMARK    2  A    between atoms: C_2  and  N_13 
REMARK    3  A    between atoms: C_8  and  N_24 
REMARK    4  A    between atoms: N_18  and  C_25 
ROOT
ATOM      1  C   HJ0 A1101       7.708   2.053  -2.747  1.00  0.00     0.111 A 
ATOM      2  C   HJ0 A1101      10.271   5.708  -3.151  1.00  0.00     0.183 A 
ATOM      3  C   HJ0 A1101      11.033   3.517  -3.349  1.00  0.00     0.115 A 
ATOM      4  C   HJ0 A1101       9.706   3.073  -3.104  1.00  0.00     0.069 A 
ATOM      5  C   HJ0 A1101       9.017   1.775  -3.018  1.00  0.00     0.065 A 
ATOM      6  N   HJ0 A1101       7.523   3.391  -2.690  1.00  0.00    -0.332 N 
ATOM      7  C   HJ0 A1101       8.697   4.046  -2.895  1.00  0.00     0.124 A 
ATOM      8  N   HJ0 A1101       9.021   5.348  -2.928  1.00  0.00    -0.338 N 
ATOM      9  HN  HJ0 A1101       8.302   6.058  -2.781  1.00  0.00     0.168 HD
ATOM     10  N   HJ0 A1101      11.262   4.837  -3.371  1.00  0.00    -0.338 N 
ATOM     11  HN  HJ0 A1101      12.203   5.182  -3.558  1.00  0.00     0.168 HD
ENDROOT
BRANCH   5  12
ATOM     12  C   HJ0 A1101       9.626   0.450  -3.083  1.00  0.00     0.259 C 
ATOM     13  N   HJ0 A1101       8.894  -0.664  -2.867  1.00  0.00    -0.308 N 
ATOM     14  H   HJ0 A1101       7.925  -0.560  -2.731  1.00  0.00     0.170 HD
ATOM     15  O   HJ0 A1101      10.835   0.405  -3.254  1.00  0.00    -0.267 OA
BRANCH  13  16
ATOM     16  C   HJ0 A1101       9.419  -1.940  -2.826  1.00  0.00     0.124 A 
ATOM     17  C   HJ0 A1101       8.852  -3.181  -2.957  1.00  0.00     0.076 A 
ATOM     18  C   HJ0 A1101       9.881  -4.115  -2.891  1.00  0.00     0.025 A 
ATOM     19  C   HJ0 A1101       9.760  -5.611  -2.980  1.00  0.00     0.070 C 
ATOM     20  N   HJ0 A1101      10.997  -3.454  -2.761  1.00  0.00    -0.304 N 
ATOM     21  N   HJ0 A1101      10.729  -2.100  -2.735  1.00  0.00    -0.285 N 
ATOM     22  H   HJ0 A1101      11.892  -3.859  -2.692  1.00  0.00     0.186 HD
ATOM     23  HN  HJ0 A1101      11.420  -1.354  -2.659  1.00  0.00     0.188 HD
ENDBRANCH  13  16
ENDBRANCH   5  12
BRANCH   6  24
ATOM     24  C   HJ0 A1101       6.234   4.021  -2.444  1.00  0.00     0.035 A 
ATOM     25  C   HJ0 A1101       5.097   3.071  -2.087  1.00  0.00     0.039 C 
ATOM     26  C   HJ0 A1101       6.228   5.385  -1.753  1.00  0.00     0.033 A 
ATOM     27  C   HJ0 A1101       5.920   5.279  -3.243  1.00  0.00     0.033 A 
ENDBRANCH   6  24
BRANCH   3  28
ATOM     28  N   HJ0 A1101      12.083   2.658  -3.598  1.00  0.00    -0.385 N 
ATOM     29  H   HJ0 A1101      12.000   1.702  -3.379  1.00  0.00     0.157 HD
ATOM     30  H   HJ0 A1101      12.916   3.002  -3.995  1.00  0.00     0.157 HD
ENDBRANCH   3  28
TORSDOF 4
ENDMDL
MODEL 9
REMARK VINA RESULT:    -4.458      2.216      6.797
REMARK INTER + INTRA:          -5.245
REMARK INTER:                  -5.816
REMARK INTRA:                   0.572
REMARK UNBOUND:                 0.125
REMARK  4 active torsions:
REMARK  status: ('A' for Active; 'I' for Inactive)
REMARK       I    between atoms: C_1  and  N_13 
REMARK    1  A    between atoms: C_1  and  C_17 
REMARK    2  A    between atoms: C_2  and  N_13 
REMARK    3  A    between atoms: C_8  and  N_24 
REMARK    4  A    between atoms: N_18  and  C_25 
ROOT
ATOM      1  C   HJ0 A1101       7.775   0.059  -2.738  1.00  0.00     0.111 A 
ATOM      2  C   HJ0 A1101      12.084   1.259  -3.015  1.00  0.00     0.183 A 
ATOM      3  C   HJ0 A1101      10.295   2.741  -2.867  1.00  0.00     0.115 A 
ATOM      4  C   HJ0 A1101       9.420   1.622  -2.826  1.00  0.00     0.069 A 
ATOM      5  C   HJ0 A1101       7.968   1.411  -2.715  1.00  0.00     0.065 A 
ATOM      6  N   HJ0 A1101       8.965  -0.576  -2.821  1.00  0.00    -0.332 N 
ATOM      7  C   HJ0 A1101       9.984   0.323  -2.880  1.00  0.00     0.124 A 
ATOM      8  N   HJ0 A1101      11.316   0.186  -2.972  1.00  0.00    -0.338 N 
ATOM      9  HN  HJ0 A1101      11.733  -0.744  -3.009  1.00  0.00     0.168 HD
ATOM     10  N   HJ0 A1101      11.611   2.509  -2.952  1.00  0.00    -0.338 N 
ATOM     11  HN  HJ0 A1101      12.262   3.294  -2.969  1.00  0.00     0.168 HD
ENDROOT
BRANCH   5  12
ATOM     12  C   HJ0 A1101       6.927   2.435  -2.708  1.00  0.00     0.259 C 
ATOM     13  N   HJ0 A1101       6.230   2.712  -1.585  1.00  0.00    -0.308 N 
ATOM     14  H   HJ0 A1101       6.489   2.249  -0.756  1.00  0.00     0.170 HD
ATOM     15  O   HJ0 A1101       6.664   2.963  -3.779  1.00  0.00    -0.267 OA
BRANCH  13  16
ATOM     16  C   HJ0 A1101       5.177   3.602  -1.528  1.00  0.00     0.124 A 
ATOM     17  C   HJ0 A1101       5.046   4.909  -1.920  1.00  0.00     0.076 A 
ATOM     18  C   HJ0 A1101       3.729   5.285  -1.675  1.00  0.00     0.025 A 
ATOM     19  C   HJ0 A1101       3.101   6.626  -1.934  1.00  0.00     0.070 C 
ATOM     20  N   HJ0 A1101       3.112   4.242  -1.194  1.00  0.00    -0.304 N 
ATOM     21  N   HJ0 A1101       3.994   3.183  -1.111  1.00  0.00    -0.285 N 
ATOM     22  H   HJ0 A1101       2.164   4.215  -0.930  1.00  0.00     0.186 HD
ATOM     23  HN  HJ0 A1101       3.772   2.242  -0.785  1.00  0.00     0.188 HD
ENDBRANCH  13  16
ENDBRANCH   5  12
BRANCH   6  24
ATOM     24  C   HJ0 A1101       9.111  -2.024  -2.841  1.00  0.00     0.035 A 
ATOM     25  C   HJ0 A1101       8.067  -2.778  -3.655  1.00  0.00     0.039 C 
ATOM     26  C   HJ0 A1101      10.530  -2.596  -2.848  1.00  0.00     0.033 A 
ATOM     27  C   HJ0 A1101       9.678  -2.674  -1.584  1.00  0.00     0.033 A 
ENDBRANCH   6  24
BRANCH   3  28
ATOM     28  N   HJ0 A1101       9.856   4.046  -2.787  1.00  0.00    -0.385 N 
ATOM     29  H   HJ0 A1101       9.943   4.544  -1.942  1.00  0.00     0.157 HD
ATOM     30  H   HJ0 A1101       9.456   4.480  -3.575  1.00  0.00     0.157 HD
ENDBRANCH   3  28
TORSDOF 4
ENDMDL
MODEL 10
REMARK VINA RESULT:    -2.830      2.251      6.977
REMARK INTER + INTRA:          -3.284
REMARK INTER:                  -3.724
REMARK INTRA:                   0.441
REMARK UNBOUND:                 0.125
REMARK  4 active torsions:
REMARK  status: ('A' for Active; 'I' for Inactive)
REMARK       I    between atoms: C_1  and  N_13 
REMARK    1  A    between atoms: C_1  and  C_17 
REMARK    2  A    between atoms: C_2  and  N_13 
REMARK    3  A    between atoms: C_8  and  N_24 
REMARK    4  A    between atoms: N_18  and  C_25 
ROOT
ATOM      1  C   HJ0 A1101       7.517  -1.799  -2.599  1.00  0.00     0.111 A 
ATOM      2  C   HJ0 A1101      11.780  -0.571  -3.240  1.00  0.00     0.183 A 
ATOM      3  C   HJ0 A1101      10.068   0.856  -2.565  1.00  0.00     0.115 A 
ATOM      4  C   HJ0 A1101       9.177  -0.249  -2.617  1.00  0.00     0.069 A 
ATOM      5  C   HJ0 A1101       7.749  -0.477  -2.347  1.00  0.00     0.065 A 
ATOM      6  N   HJ0 A1101       8.667  -2.407  -2.966  1.00  0.00    -0.332 N 
ATOM      7  C   HJ0 A1101       9.693  -1.514  -2.994  1.00  0.00     0.124 A 
ATOM      8  N   HJ0 A1101      10.995  -1.631  -3.295  1.00  0.00    -0.338 N 
ATOM      9  HN  HJ0 A1101      11.378  -2.537  -3.566  1.00  0.00     0.168 HD
ATOM     10  N   HJ0 A1101      11.354   0.644  -2.875  1.00  0.00    -0.338 N 
ATOM     11  HN  HJ0 A1101      12.017   1.418  -2.833  1.00  0.00     0.168 HD
ENDROOT
BRANCH   5  12
ATOM     12  C   HJ0 A1101       6.747   0.528  -2.001  1.00  0.00     0.259 C 
ATOM     13  N   HJ0 A1101       6.901   1.818  -2.367  1.00  0.00    -0.308 N 
ATOM     14  H   HJ0 A1101       7.674   2.049  -2.931  1.00  0.00     0.170 HD
ATOM     15  O   HJ0 A1101       5.818   0.162  -1.297  1.00  0.00    -0.267 OA
BRANCH  13  16
ATOM     16  C   HJ0 A1101       6.041   2.834  -2.001  1.00  0.00     0.124 A 
ATOM     17  C   HJ0 A1101       5.423   3.828  -2.714  1.00  0.00     0.076 A 
ATOM     18  C   HJ0 A1101       4.613   4.531  -1.828  1.00  0.00     0.025 A 
ATOM     19  C   HJ0 A1101       3.738   5.714  -2.137  1.00  0.00     0.070 C 
ATOM     20  N   HJ0 A1101       4.726   3.959  -0.662  1.00  0.00    -0.304 N 
ATOM     21  N   HJ0 A1101       5.598   2.893  -0.756  1.00  0.00    -0.285 N 
ATOM     22  H   HJ0 A1101       4.261   4.244   0.158  1.00  0.00     0.186 HD
ATOM     23  HN  HJ0 A1101       5.856   2.261   0.002  1.00  0.00     0.188 HD
ENDBRANCH  13  16
ENDBRANCH   5  12
BRANCH   6  24
ATOM     24  C   HJ0 A1101       8.770  -3.824  -3.280  1.00  0.00     0.035 A 
ATOM     25  C   HJ0 A1101       7.637  -4.393  -4.125  1.00  0.00     0.039 C 
ATOM     26  C   HJ0 A1101      10.166  -4.399  -3.530  1.00  0.00     0.033 A 
ATOM     27  C   HJ0 A1101       9.428  -4.714  -2.232  1.00  0.00     0.033 A 
ENDBRANCH   6  24
BRANCH   3  28
ATOM     28  N   HJ0 A1101       9.681   2.122  -2.179  1.00  0.00    -0.385 N 
ATOM     29  H   HJ0 A1101       9.374   2.770  -2.853  1.00  0.00     0.157 HD
ATOM     30  H   HJ0 A1101       9.710   2.377  -1.228  1.00  0.00     0.157 HD
ENDBRANCH   3  28
TORSDOF 4
ENDMDL
MODEL 11
REMARK VINA RESULT:    -2.661      2.142      6.821
REMARK INTER + INTRA:          -3.080
REMARK INTER:                  -3.762
REMARK INTRA:                   0.682
REMARK UNBOUND:                 0.125
REMARK  4 active torsions:
REMARK  status: ('A' for Active; 'I' for Inactive)
REMARK       I    between atoms: C_1  and  N_13 
REMARK    1  A    between atoms: C_1  and  C_17 
REMARK    2  A    between atoms: C_2  and  N_13 
REMARK    3  A    between atoms: C_8  and  N_24 
REMARK    4  A    between atoms: N_18  and  C_25 
ROOT
ATOM      1  C   HJ0 A1101       7.700  -1.118  -2.622  1.00  0.00     0.111 A 
ATOM      2  C   HJ0 A1101      12.049  -0.419  -3.451  1.00  0.00     0.183 A 
ATOM      3  C   HJ0 A1101      10.485   1.255  -3.036  1.00  0.00     0.115 A 
ATOM      4  C   HJ0 A1101       9.496   0.245  -2.900  1.00  0.00     0.069 A 
ATOM      5  C   HJ0 A1101       8.055   0.200  -2.599  1.00  0.00     0.065 A 
ATOM      6  N   HJ0 A1101       8.785  -1.884  -2.875  1.00  0.00    -0.332 N 
ATOM      7  C   HJ0 A1101       9.887  -1.108  -3.054  1.00  0.00     0.124 A 
ATOM      8  N   HJ0 A1101      11.170  -1.395  -3.326  1.00  0.00    -0.338 N 
ATOM      9  HN  HJ0 A1101      11.464  -2.366  -3.437  1.00  0.00     0.168 HD
ATOM     10  N   HJ0 A1101      11.742   0.875  -3.302  1.00  0.00    -0.338 N 
ATOM     11  HN  HJ0 A1101      12.474   1.580  -3.391  1.00  0.00     0.168 HD
ENDROOT
BRANCH   5  12
ATOM     12  C   HJ0 A1101       7.155   1.338  -2.434  1.00  0.00     0.259 C 
ATOM     13  N   HJ0 A1101       6.147   1.303  -1.536  1.00  0.00    -0.308 N 
ATOM     14  H   HJ0 A1101       6.078   0.514  -0.951  1.00  0.00     0.170 HD
ATOM     15  O   HJ0 A1101       7.305   2.278  -3.200  1.00  0.00    -0.267 OA
BRANCH  13  16
ATOM     16  C   HJ0 A1101       5.208   2.303  -1.388  1.00  0.00     0.124 A 
ATOM     17  C   HJ0 A1101       5.231   3.645  -1.667  1.00  0.00     0.076 A 
ATOM     18  C   HJ0 A1101       3.969   4.151  -1.370  1.00  0.00     0.025 A 
ATOM     19  C   HJ0 A1101       3.503   5.574  -1.506  1.00  0.00     0.070 C 
ATOM     20  N   HJ0 A1101       3.235   3.151  -0.969  1.00  0.00    -0.304 N 
ATOM     21  N   HJ0 A1101       3.985   1.992  -0.989  1.00  0.00    -0.285 N 
ATOM     22  H   HJ0 A1101       2.292   3.213  -0.694  1.00  0.00     0.186 HD
ATOM     23  HN  HJ0 A1101       3.655   1.060  -0.740  1.00  0.00     0.188 HD
ENDBRANCH  13  16
ENDBRANCH   5  12
BRANCH   6  24
ATOM     24  C   HJ0 A1101       8.753  -3.338  -2.942  1.00  0.00     0.035 A 
ATOM     25  C   HJ0 A1101       7.418  -3.947  -3.353  1.00  0.00     0.039 C 
ATOM     26  C   HJ0 A1101      10.012  -4.056  -3.429  1.00  0.00     0.033 A 
ATOM     27  C   HJ0 A1101       9.633  -4.090  -1.951  1.00  0.00     0.033 A 
ENDBRANCH   6  24
BRANCH   3  28
ATOM     28  N   HJ0 A1101      10.220   2.599  -2.874  1.00  0.00    -0.385 N 
ATOM     29  H   HJ0 A1101       9.356   2.969  -3.165  1.00  0.00     0.157 HD
ATOM     30  H   HJ0 A1101      10.896   3.188  -2.467  1.00  0.00     0.157 HD
ENDBRANCH   3  28
TORSDOF 4
ENDMDL
