MODEL 1
REMARK VINA RESULT:    -8.023      0.000      0.000
REMARK INTER + INTRA:          -9.331
REMARK INTER:                  -9.195
REMARK INTRA:                  -0.135
REMARK UNBOUND:                -0.135
REMARK  3 active torsions:
REMARK  status: ('A' for Active; 'I' for Inactive)
REMARK    1  A    between atoms: C1_1  and  C2_2 
REMARK    2  A    between atoms: N_10  and  C_11 
REMARK    3  A    between atoms: C6_21  and  C9_25 
ROOT
ATOM      1  C2  499 A 401      14.500  -0.284 195.444  1.00  0.00     0.046 A 
ATOM      2  C3  499 A 401      14.934  -1.585 195.494  1.00  0.00     0.106 A 
ATOM      3  C8  499 A 401      14.057   0.044 196.781  1.00  0.00     0.025 A 
ATOM      4  C4  499 A 401      14.267  -1.101 197.561  1.00  0.00     0.116 A 
ATOM      5  N3  499 A 401      14.809  -2.078 196.771  1.00  0.00    -0.351 N 
ATOM      6  C7  499 A 401      13.564   1.172 197.433  1.00  0.00     0.030 A 
ATOM      7  C6  499 A 401      13.304   1.109 198.801  1.00  0.00    -0.007 A 
ATOM      8  C5  499 A 401      13.535  -0.101 199.460  1.00  0.00     0.102 A 
ATOM      9  N4  499 A 401      14.008  -1.216 198.872  1.00  0.00    -0.351 N 
ATOM     10  H4  499 A 401      14.158  -2.085 199.385  1.00  0.00     0.166 HD
ATOM     11  H   499 A 401      15.066  -2.980 197.067  1.00  0.00     0.166 HD
ENDROOT
BRANCH   1  12
ATOM     12  C1  499 A 401      14.613   0.598 194.329  1.00  0.00     0.178 A 
ATOM     13  N2  499 A 401      14.849   0.377 193.085  1.00  0.00    -0.276 N 
ATOM     14  N1  499 A 401      14.922   1.630 192.469  1.00  0.00    -0.263 N 
ATOM     15  H2  499 A 401      14.960  -0.533 192.636  1.00  0.00     0.189 HD
ATOM     16  C   499 A 401      14.709   2.493 193.412  1.00  0.00     0.238 A 
ATOM     17  H1  499 A 401      15.104   1.824 191.484  1.00  0.00     0.190 HD
ATOM     18  O   499 A 401      14.508   1.916 194.621  1.00  0.00    -0.259 OA
BRANCH  16  19
ATOM     19  N   499 A 401      14.658   3.822 193.373  1.00  0.00    -0.364 N 
ATOM     20  H   499 A 401      14.052   4.272 192.742  1.00  0.00     0.159 HD
ATOM     21  H   499 A 401      15.227   4.354 193.974  1.00  0.00     0.159 HD
ENDBRANCH  16  19
ENDBRANCH   1  12
BRANCH   7  22
ATOM     22  C9  499 A 401      12.810   2.320 199.518  1.00  0.00     0.003 A 
ATOM     23  C16 499 A 401      11.750   2.418 200.519  1.00  0.00     0.003 A 
ATOM     24  C11 499 A 401      11.648   3.781 200.864  1.00  0.00     0.043 A 
ATOM     25  C15 499 A 401      10.901   1.500 201.142  1.00  0.00     0.014 A 
ATOM     26  N5  499 A 401      12.584   4.473 200.128  1.00  0.00    -0.364 N 
ATOM     27  C12 499 A 401      10.725   4.230 201.807  1.00  0.00     0.030 A 
ATOM     28  C10 499 A 401      13.271   3.600 199.329  1.00  0.00     0.101 A 
ATOM     29  H   499 A 401      12.735   5.446 200.171  1.00  0.00     0.165 HD
ATOM     30  C13 499 A 401       9.891   3.295 202.417  1.00  0.00     0.002 A 
ATOM     31  C14 499 A 401       9.976   1.947 202.088  1.00  0.00     0.001 A 
ENDBRANCH   7  22
TORSDOF 3
ENDMDL
MODEL 2
REMARK VINA RESULT:    -5.685      1.249      2.035
REMARK INTER + INTRA:          -6.651
REMARK INTER:                  -6.490
REMARK INTRA:                  -0.161
REMARK UNBOUND:                -0.135
REMARK  3 active torsions:
REMARK  status: ('A' for Active; 'I' for Inactive)
REMARK    1  A    between atoms: C1_1  and  C2_2 
REMARK    2  A    between atoms: N_10  and  C_11 
REMARK    3  A    between atoms: C6_21  and  C9_25 
ROOT
ATOM      1  C2  499 A 401      14.689  -0.382 194.980  1.00  0.00     0.046 A 
ATOM      2  C3  499 A 401      15.289  -1.605 194.814  1.00  0.00     0.106 A 
ATOM      3  C8  499 A 401      14.234  -0.340 196.353  1.00  0.00     0.025 A 
ATOM      4  C4  499 A 401      14.608  -1.560 196.932  1.00  0.00     0.116 A 
ATOM      5  N3  499 A 401      15.256  -2.314 195.991  1.00  0.00    -0.351 N 
ATOM      6  C7  499 A 401      13.613   0.590 197.182  1.00  0.00     0.030 A 
ATOM      7  C6  499 A 401      13.391   0.269 198.521  1.00  0.00    -0.007 A 
ATOM      8  C5  499 A 401      13.791  -0.992 198.970  1.00  0.00     0.102 A 
ATOM      9  N4  499 A 401      14.393  -1.923 198.205  1.00  0.00    -0.351 N 
ATOM     10  H4  499 A 401      14.666  -2.837 198.567  1.00  0.00     0.166 HD
ATOM     11  H   499 A 401      15.634  -3.211 196.133  1.00  0.00     0.166 HD
ENDROOT
BRANCH   1  12
ATOM     12  C1  499 A 401      14.663   0.679 194.028  1.00  0.00     0.178 A 
ATOM     13  N2  499 A 401      14.678   0.674 192.742  1.00  0.00    -0.276 N 
ATOM     14  N1  499 A 401      14.715   2.014 192.344  1.00  0.00    -0.263 N 
ATOM     15  H2  499 A 401      14.664  -0.145 192.134  1.00  0.00     0.189 HD
ATOM     16  C   499 A 401      14.707   2.703 193.441  1.00  0.00     0.238 A 
ATOM     17  H1  499 A 401      14.741   2.374 191.390  1.00  0.00     0.190 HD
ATOM     18  O   499 A 401      14.678   1.928 194.552  1.00  0.00    -0.259 OA
BRANCH  16  19
ATOM     19  N   499 A 401      14.722   4.019 193.636  1.00  0.00    -0.364 N 
ATOM     20  H   499 A 401      14.107   4.426 194.287  1.00  0.00     0.159 HD
ATOM     21  H   499 A 401      15.349   4.584 193.130  1.00  0.00     0.159 HD
ENDBRANCH  16  19
ENDBRANCH   1  12
BRANCH   7  22
ATOM     22  C9  499 A 401      12.759   1.268 199.429  1.00  0.00     0.003 A 
ATOM     23  C16 499 A 401      12.814   2.726 199.360  1.00  0.00     0.003 A 
ATOM     24  C11 499 A 401      12.081   3.209 200.463  1.00  0.00     0.043 A 
ATOM     25  C15 499 A 401      13.400   3.646 198.486  1.00  0.00     0.014 A 
ATOM     26  N5  499 A 401      11.604   2.122 201.161  1.00  0.00    -0.364 N 
ATOM     27  C12 499 A 401      11.928   4.575 200.699  1.00  0.00     0.030 A 
ATOM     28  C10 499 A 401      12.011   0.971 200.543  1.00  0.00     0.101 A 
ATOM     29  H   499 A 401      11.055   2.166 201.977  1.00  0.00     0.165 HD
ATOM     30  C13 499 A 401      12.518   5.472 199.811  1.00  0.00     0.002 A 
ATOM     31  C14 499 A 401      13.247   5.014 198.720  1.00  0.00     0.001 A 
ENDBRANCH   7  22
TORSDOF 3
ENDMDL
