MODEL 1
REMARK VINA RESULT:    -6.248      0.000      0.000
REMARK INTER + INTRA:          -8.432
REMARK INTER:                  -7.709
REMARK INTRA:                  -0.723
REMARK UNBOUND:                -0.723
REMARK  4 active torsions:
REMARK  status: ('A' for Active; 'I' for Inactive)
REMARK    1  A    between atoms: C15_7  and  C16_8 
REMARK       I    between atoms: C16_8  and  N18_9 
REMARK    2  A    between atoms: C08_19  and  O07_20 
REMARK    3  A    between atoms: O07_20  and  C06_21 
REMARK    4  A    between atoms: C06_21  and  C05_22 
ROOT
ATOM      1 CL11 552 A 901      -4.912  11.268  34.731  1.00  0.00    -0.062 Cl
ATOM      2  C10 552 A 901      -5.337  11.677  33.096  1.00  0.00     0.132 A 
ATOM      3  N09 552 A 901      -6.668  11.612  32.814  1.00  0.00    -0.321 N 
ATOM      4  H09 552 A 901      -7.350  11.368  33.532  1.00  0.00     0.169 HD
ATOM      5  C12 552 A 901      -4.411  12.001  32.195  1.00  0.00     0.077 A 
ATOM      6  N23 552 A 901      -4.783  12.304  30.937  1.00  0.00    -0.290 N 
ATOM      7  C15 552 A 901      -3.693  12.644  30.066  1.00  0.00     0.208 C 
ATOM      8  C14 552 A 901      -2.485  12.689  31.003  1.00  0.00     0.010 C 
ATOM      9  C13 552 A 901      -2.938  12.112  32.340  1.00  0.00     0.031 C 
ATOM     10  C24 552 A 901      -6.074  12.256  30.518  1.00  0.00     0.300 A 
ATOM     11  O25 552 A 901      -6.492  12.498  29.408  1.00  0.00    -0.263 OA
ATOM     12  C08 552 A 901      -7.033  11.870  31.604  1.00  0.00     0.214 A 
ENDROOT
BRANCH  12  13
ATOM     13  O07 552 A 901      -8.300  11.878  31.093  1.00  0.00    -0.327 OA
BRANCH  13  14
ATOM     14  C06 552 A 901      -9.315  11.675  32.064  1.00  0.00     0.216 C 
BRANCH  14  15
ATOM     15  C05 552 A 901      -9.731  12.918  32.744  1.00  0.00    -0.034 A 
ATOM     16  C04 552 A 901      -9.873  12.974  34.106  1.00  0.00     0.012 A 
ATOM     17  C03 552 A 901     -10.254  14.148  34.709  1.00  0.00     0.043 A 
ATOM     18  C02 552 A 901     -10.486  15.260  33.937  1.00  0.00     0.116 A 
ATOM     19  C27 552 A 901     -10.332  15.207  32.579  1.00  0.00     0.043 A 
ATOM     20  F01 552 A 901     -10.848  16.396  34.557  1.00  0.00    -0.206 F 
ATOM     21  C26 552 A 901      -9.960  14.030  31.979  1.00  0.00     0.012 A 
ENDBRANCH  14  15
ENDBRANCH  13  14
ENDBRANCH  12  13
BRANCH   7  22
ATOM     22  C16 552 A 901      -3.610  11.515  29.082  1.00  0.00     0.246 C 
ATOM     23  N18 552 A 901      -3.454  11.913  27.790  1.00  0.00    -0.350 N 
ATOM     24  C22 552 A 901      -3.398  10.949  26.741  1.00  0.00     0.126 C 
ATOM     25  C19 552 A 901      -3.146  13.247  27.360  1.00  0.00     0.126 C 
ATOM     26  C21 552 A 901      -3.254  11.771  25.480  1.00  0.00     0.021 C 
ATOM     27  C20 552 A 901      -2.640  13.078  25.952  1.00  0.00     0.021 C 
ATOM     28  O17 552 A 901      -3.653  10.359  29.406  1.00  0.00    -0.271 OA
ENDBRANCH   7  22
TORSDOF 4
ENDMDL
