MODEL 1
REMARK VINA RESULT:    -3.762      0.000      0.000
REMARK INTER + INTRA:          -4.335
REMARK INTER:                  -4.091
REMARK INTRA:                  -0.243
REMARK UNBOUND:                -0.243
REMARK  2 active torsions:
REMARK  status: ('A' for Active; 'I' for Inactive)
REMARK    1  A    between atoms: C_7  and  C_8 
REMARK    2  A    between atoms: C_20  and  N_21 
ROOT
HETATM    1  C   DXK A1001       9.620   8.715  11.083  1.00  0.00     0.119 A 
HETATM    2  N   DXK A1001       9.970   7.511  11.554  1.00  0.00    -0.332 N 
ATOM      3  HN  DXK A1001       9.282   6.759  11.595  1.00  0.00     0.168 HD
HETATM    4  N   DXK A1001      10.535   9.689  11.043  1.00  0.00    -0.326 N 
ATOM      5  HN  DXK A1001      10.273  10.603  10.673  1.00  0.00     0.169 HD
HETATM    6  C   DXK A1001      11.792   9.493  11.479  1.00  0.00     0.138 A 
HETATM    7  N   DXK A1001      12.857  10.306  11.551  1.00  0.00    -0.281 N 
HETATM    8  C   DXK A1001      12.898  11.710  11.132  1.00  0.00     0.179 C 
HETATM    9  N   DXK A1001      13.827   9.708  12.019  1.00  0.00    -0.307 N 
ATOM     10  HN  DXK A1001      14.750  10.103  12.199  1.00  0.00     0.186 HD
HETATM   11  C   DXK A1001      13.445   8.441  12.250  1.00  0.00     0.126 A 
HETATM   12  C   DXK A1001      12.151   8.297  11.937  1.00  0.00     0.065 A 
HETATM   13  C   DXK A1001      11.230   7.295  11.974  1.00  0.00     0.095 A 
ENDROOT
BRANCH   1  14
HETATM   14  C   DXK A1001       8.321   8.962  10.628  1.00  0.00     0.023 A 
HETATM   15  C   DXK A1001       7.493   7.910  10.230  1.00  0.00     0.018 A 
HETATM   16  C   DXK A1001       6.195   8.155   9.781  1.00  0.00     0.018 A 
HETATM   17  C   DXK A1001       5.715   9.456   9.727  1.00  0.00     0.087 A 
HETATM   18  N   DXK A1001       6.534  10.518  10.119  1.00  0.00    -0.374 N 
HETATM   19  C   DXK A1001       7.838  10.268  10.572  1.00  0.00     0.102 A 
ATOM     20  HN  DXK A1001       6.184  11.475  10.076  1.00  0.00     0.164 HD
ENDBRANCH   1  14
BRANCH  13  21
HETATM   21  N   DXK A1001      11.560   6.065  12.438  1.00  0.00    -0.288 NA
HETATM   22  H   DXK A1001      12.529   5.858  12.194  1.00  0.00     0.125 HD
HETATM   23  H   DXK A1001      11.453   6.044  13.452  1.00  0.00     0.125 HD
ENDBRANCH  13  21
TORSDOF 2
ENDMDL
MODEL 2
REMARK VINA RESULT:    -3.740      1.587      6.017
REMARK INTER + INTRA:          -4.311
REMARK INTER:                  -4.068
REMARK INTRA:                  -0.243
REMARK UNBOUND:                -0.243
REMARK  2 active torsions:
REMARK  status: ('A' for Active; 'I' for Inactive)
REMARK    1  A    between atoms: C_7  and  C_8 
REMARK    2  A    between atoms: C_20  and  N_21 
ROOT
HETATM    1  C   DXK A1001       9.419   9.429  10.773  1.00  0.00     0.119 A 
HETATM    2  N   DXK A1001       8.665  10.527  10.912  1.00  0.00    -0.332 N 
ATOM      3  HN  DXK A1001       9.057  11.365  11.342  1.00  0.00     0.168 HD
HETATM    4  N   DXK A1001       8.885   8.339  10.212  1.00  0.00    -0.326 N 
ATOM      5  HN  DXK A1001       9.462   7.506  10.095  1.00  0.00     0.169 HD
HETATM    6  C   DXK A1001       7.605   8.315   9.799  1.00  0.00     0.138 A 
HETATM    7  N   DXK A1001       6.860   7.353   9.235  1.00  0.00    -0.281 N 
HETATM    8  C   DXK A1001       7.309   5.997   8.907  1.00  0.00     0.179 C 
HETATM    9  N   DXK A1001       5.720   7.764   9.011  1.00  0.00    -0.307 N 
ATOM     10  HN  DXK A1001       4.953   7.226   8.608  1.00  0.00     0.186 HD
HETATM   11  C   DXK A1001       5.673   9.050   9.397  1.00  0.00     0.126 A 
HETATM   12  C   DXK A1001       6.854   9.405   9.922  1.00  0.00     0.065 A 
HETATM   13  C   DXK A1001       7.389  10.524  10.483  1.00  0.00     0.095 A 
ENDROOT
BRANCH   1  14
HETATM   14  C   DXK A1001      10.751   9.411  11.198  1.00  0.00     0.023 A 
HETATM   15  C   DXK A1001      11.375   8.208  11.540  1.00  0.00     0.018 A 
HETATM   16  C   DXK A1001      12.705   8.190  11.960  1.00  0.00     0.018 A 
HETATM   17  C   DXK A1001      13.422   9.375  12.041  1.00  0.00     0.087 A 
HETATM   18  N   DXK A1001      12.810  10.585  11.706  1.00  0.00    -0.374 N 
HETATM   19  C   DXK A1001      11.472  10.600  11.282  1.00  0.00     0.102 A 
ATOM     20  HN  DXK A1001      13.335  11.457  11.769  1.00  0.00     0.164 HD
ENDBRANCH   1  14
BRANCH  13  21
HETATM   21  N   DXK A1001       6.650  11.651  10.628  1.00  0.00    -0.288 NA
HETATM   22  H   DXK A1001       7.063  12.237  11.354  1.00  0.00     0.125 HD
HETATM   23  H   DXK A1001       6.635  12.162   9.746  1.00  0.00     0.125 HD
ENDBRANCH  13  21
TORSDOF 2
ENDMDL
MODEL 3
REMARK VINA RESULT:    -3.736      1.668      5.965
REMARK INTER + INTRA:          -4.307
REMARK INTER:                  -4.063
REMARK INTRA:                  -0.245
REMARK UNBOUND:                -0.243
REMARK  2 active torsions:
REMARK  status: ('A' for Active; 'I' for Inactive)
REMARK    1  A    between atoms: C_7  and  C_8 
REMARK    2  A    between atoms: C_20  and  N_21 
ROOT
HETATM    1  C   DXK A1001       9.495   8.979  10.920  1.00  0.00     0.119 A 
HETATM    2  N   DXK A1001       8.640  10.011  10.921  1.00  0.00    -0.332 N 
ATOM      3  HN  DXK A1001       8.957  10.936  11.212  1.00  0.00     0.168 HD
HETATM    4  N   DXK A1001       9.059   7.773  10.541  1.00  0.00    -0.326 N 
ATOM      5  HN  DXK A1001       9.712   6.990  10.528  1.00  0.00     0.169 HD
HETATM    6  C   DXK A1001       7.780   7.569  10.177  1.00  0.00     0.138 A 
HETATM    7  N   DXK A1001       7.122   6.469   9.783  1.00  0.00    -0.281 N 
HETATM    8  C   DXK A1001       7.694   5.127   9.642  1.00  0.00     0.179 C 
HETATM    9  N   DXK A1001       5.944   6.734   9.539  1.00  0.00    -0.307 N 
ATOM     10  HN  DXK A1001       5.225   6.073   9.243  1.00  0.00     0.186 HD
HETATM   11  C   DXK A1001       5.779   8.053   9.734  1.00  0.00     0.126 A 
HETATM   12  C   DXK A1001       6.929   8.590  10.164  1.00  0.00     0.065 A 
HETATM   13  C   DXK A1001       7.363   9.825  10.539  1.00  0.00     0.095 A 
ENDROOT
BRANCH   1  14
HETATM   14  C   DXK A1001      10.830   9.149  11.300  1.00  0.00     0.023 A 
HETATM   15  C   DXK A1001      11.613   8.051  11.664  1.00  0.00     0.018 A 
HETATM   16  C   DXK A1001      12.945   8.220  12.040  1.00  0.00     0.018 A 
HETATM   17  C   DXK A1001      13.506   9.488  12.053  1.00  0.00     0.087 A 
HETATM   18  N   DXK A1001      12.734  10.596  11.694  1.00  0.00    -0.374 N 
HETATM   19  C   DXK A1001      11.394  10.423  11.315  1.00  0.00     0.102 A 
ATOM     20  HN  DXK A1001      13.143  11.530  11.707  1.00  0.00     0.164 HD
ENDBRANCH   1  14
BRANCH  13  21
HETATM   21  N   DXK A1001       6.521  10.887  10.541  1.00  0.00    -0.288 NA
HETATM   22  H   DXK A1001       6.070  10.962  11.453  1.00  0.00     0.125 HD
HETATM   23  H   DXK A1001       7.048  11.739  10.351  1.00  0.00     0.125 HD
ENDBRANCH  13  21
TORSDOF 2
ENDMDL
MODEL 4
REMARK VINA RESULT:    -3.733      0.334      0.334
REMARK INTER + INTRA:          -4.304
REMARK INTER:                  -4.059
REMARK INTRA:                  -0.245
REMARK UNBOUND:                -0.243
REMARK  2 active torsions:
REMARK  status: ('A' for Active; 'I' for Inactive)
REMARK    1  A    between atoms: C_7  and  C_8 
REMARK    2  A    between atoms: C_20  and  N_21 
ROOT
HETATM    1  C   DXK A1001       9.727   8.445  11.205  1.00  0.00     0.119 A 
HETATM    2  N   DXK A1001      10.057   7.240  11.687  1.00  0.00    -0.332 N 
ATOM      3  HN  DXK A1001       9.358   6.499  11.732  1.00  0.00     0.168 HD
HETATM    4  N   DXK A1001      10.656   9.405  11.159  1.00  0.00    -0.326 N 
ATOM      5  HN  DXK A1001      10.409  10.320  10.781  1.00  0.00     0.169 HD
HETATM    6  C   DXK A1001      11.909   9.194  11.601  1.00  0.00     0.138 A 
HETATM    7  N   DXK A1001      12.985   9.992  11.670  1.00  0.00    -0.281 N 
HETATM    8  C   DXK A1001      13.048  11.392  11.239  1.00  0.00     0.179 C 
HETATM    9  N   DXK A1001      13.945   9.384  12.146  1.00  0.00    -0.307 N 
ATOM     10  HN  DXK A1001      14.873   9.766  12.325  1.00  0.00     0.186 HD
HETATM   11  C   DXK A1001      13.544   8.124  12.386  1.00  0.00     0.126 A 
HETATM   12  C   DXK A1001      12.248   7.997  12.069  1.00  0.00     0.065 A 
HETATM   13  C   DXK A1001      11.313   7.008  12.112  1.00  0.00     0.095 A 
ENDROOT
BRANCH   1  14
HETATM   14  C   DXK A1001       8.432   8.707  10.744  1.00  0.00     0.023 A 
HETATM   15  C   DXK A1001       7.539   7.663  10.495  1.00  0.00     0.018 A 
HETATM   16  C   DXK A1001       6.247   7.924  10.040  1.00  0.00     0.018 A 
HETATM   17  C   DXK A1001       5.838   9.233   9.831  1.00  0.00     0.087 A 
HETATM   18  N   DXK A1001       6.722  10.288  10.073  1.00  0.00    -0.374 N 
HETATM   19  C   DXK A1001       8.021  10.022  10.532  1.00  0.00     0.102 A 
ATOM     20  HN  DXK A1001       6.424  11.250   9.915  1.00  0.00     0.164 HD
ENDBRANCH   1  14
BRANCH  13  21
HETATM   21  N   DXK A1001      11.623   5.778  12.587  1.00  0.00    -0.288 NA
HETATM   22  H   DXK A1001      11.121   5.614  13.460  1.00  0.00     0.125 HD
HETATM   23  H   DXK A1001      11.355   5.071  11.902  1.00  0.00     0.125 HD
ENDBRANCH  13  21
TORSDOF 2
ENDMDL
MODEL 5
REMARK VINA RESULT:    -3.664      1.887      6.154
REMARK INTER + INTRA:          -4.229
REMARK INTER:                  -3.987
REMARK INTRA:                  -0.242
REMARK UNBOUND:                -0.243
REMARK  2 active torsions:
REMARK  status: ('A' for Active; 'I' for Inactive)
REMARK    1  A    between atoms: C_7  and  C_8 
REMARK    2  A    between atoms: C_20  and  N_21 
ROOT
HETATM    1  C   DXK A1001       9.359   8.490  10.885  1.00  0.00     0.119 A 
HETATM    2  N   DXK A1001       8.525   9.539  10.894  1.00  0.00    -0.332 N 
ATOM      3  HN  DXK A1001       8.855  10.451  11.209  1.00  0.00     0.168 HD
HETATM    4  N   DXK A1001       8.906   7.301  10.474  1.00  0.00    -0.326 N 
ATOM      5  HN  DXK A1001       9.543   6.505  10.455  1.00  0.00     0.169 HD
HETATM    6  C   DXK A1001       7.629   7.131  10.085  1.00  0.00     0.138 A 
HETATM    7  N   DXK A1001       6.956   6.052   9.657  1.00  0.00    -0.281 N 
HETATM    8  C   DXK A1001       7.504   4.702   9.496  1.00  0.00     0.179 C 
HETATM    9  N   DXK A1001       5.787   6.346   9.399  1.00  0.00    -0.307 N 
ATOM     10  HN  DXK A1001       5.061   5.706   9.078  1.00  0.00     0.186 HD
HETATM   11  C   DXK A1001       5.646   7.664   9.620  1.00  0.00     0.126 A 
HETATM   12  C   DXK A1001       6.799   8.169  10.080  1.00  0.00     0.065 A 
HETATM   13  C   DXK A1001       7.251   9.386  10.488  1.00  0.00     0.095 A 
ENDROOT
BRANCH   1  14
HETATM   14  C   DXK A1001      10.691   8.624  11.290  1.00  0.00     0.023 A 
HETATM   15  C   DXK A1001      11.354   9.847  11.164  1.00  0.00     0.018 A 
HETATM   16  C   DXK A1001      12.682   9.982  11.571  1.00  0.00     0.018 A 
HETATM   17  C   DXK A1001      13.355   8.896  12.109  1.00  0.00     0.087 A 
HETATM   18  N   DXK A1001      12.705   7.665  12.238  1.00  0.00    -0.374 N 
HETATM   19  C   DXK A1001      11.370   7.533  11.828  1.00  0.00     0.102 A 
ATOM     20  HN  DXK A1001      13.200   6.865  12.629  1.00  0.00     0.164 HD
ENDBRANCH   1  14
BRANCH  13  21
HETATM   21  N   DXK A1001       6.431  10.465  10.499  1.00  0.00    -0.288 NA
HETATM   22  H   DXK A1001       6.958  11.290  10.786  1.00  0.00     0.125 HD
HETATM   23  H   DXK A1001       6.050  10.612   9.564  1.00  0.00     0.125 HD
ENDBRANCH  13  21
TORSDOF 2
ENDMDL
MODEL 6
REMARK VINA RESULT:    -3.564      2.129      3.713
REMARK INTER + INTRA:          -4.120
REMARK INTER:                  -3.879
REMARK INTRA:                  -0.242
REMARK UNBOUND:                -0.243
REMARK  2 active torsions:
REMARK  status: ('A' for Active; 'I' for Inactive)
REMARK    1  A    between atoms: C_7  and  C_8 
REMARK    2  A    between atoms: C_20  and  N_21 
ROOT
HETATM    1  C   DXK A1001      10.729   7.327  11.572  1.00  0.00     0.119 A 
HETATM    2  N   DXK A1001      12.027   7.328  11.906  1.00  0.00    -0.332 N 
ATOM      3  HN  DXK A1001      12.505   6.449  12.104  1.00  0.00     0.168 HD
HETATM    4  N   DXK A1001      10.120   8.490  11.323  1.00  0.00    -0.326 N 
ATOM      5  HN  DXK A1001       9.135   8.489  11.057  1.00  0.00     0.169 HD
HETATM    6  C   DXK A1001      10.775   9.661  11.413  1.00  0.00     0.138 A 
HETATM    7  N   DXK A1001      10.379  10.930  11.229  1.00  0.00    -0.281 N 
HETATM    8  C   DXK A1001       9.032  11.365  10.850  1.00  0.00     0.179 C 
HETATM    9  N   DXK A1001      11.317  11.707  11.414  1.00  0.00    -0.307 N 
ATOM     10  HN  DXK A1001      11.277  12.725  11.359  1.00  0.00     0.186 HD
HETATM   11  C   DXK A1001      12.400  10.968  11.703  1.00  0.00     0.126 A 
HETATM   12  C   DXK A1001      12.066   9.671  11.731  1.00  0.00     0.065 A 
HETATM   13  C   DXK A1001      12.700   8.492  11.979  1.00  0.00     0.095 A 
ENDROOT
BRANCH   1  14
HETATM   14  C   DXK A1001      10.011   6.130  11.476  1.00  0.00     0.023 A 
HETATM   15  C   DXK A1001      10.348   5.031  12.270  1.00  0.00     0.018 A 
HETATM   16  C   DXK A1001       9.630   3.839  12.177  1.00  0.00     0.018 A 
HETATM   17  C   DXK A1001       8.568   3.737  11.290  1.00  0.00     0.087 A 
HETATM   18  N   DXK A1001       8.223   4.828  10.487  1.00  0.00    -0.374 N 
HETATM   19  C   DXK A1001       8.946   6.026  10.584  1.00  0.00     0.102 A 
ATOM     20  HN  DXK A1001       7.445   4.753   9.832  1.00  0.00     0.164 HD
ENDBRANCH   1  14
BRANCH  13  21
HETATM   21  N   DXK A1001      14.014   8.465  12.310  1.00  0.00    -0.288 NA
HETATM   22  H   DXK A1001      14.458   9.332  12.008  1.00  0.00     0.125 HD
HETATM   23  H   DXK A1001      14.108   8.368  13.321  1.00  0.00     0.125 HD
ENDBRANCH  13  21
TORSDOF 2
ENDMDL
MODEL 7
REMARK VINA RESULT:    -3.532      2.315      3.922
REMARK INTER + INTRA:          -4.085
REMARK INTER:                  -3.843
REMARK INTRA:                  -0.242
REMARK UNBOUND:                -0.243
REMARK  2 active torsions:
REMARK  status: ('A' for Active; 'I' for Inactive)
REMARK    1  A    between atoms: C_7  and  C_8 
REMARK    2  A    between atoms: C_20  and  N_21 
ROOT
HETATM    1  C   DXK A1001       8.856   7.893  10.757  1.00  0.00     0.119 A 
HETATM    2  N   DXK A1001       7.877   8.802  10.645  1.00  0.00    -0.332 N 
ATOM      3  HN  DXK A1001       6.929   8.504  10.413  1.00  0.00     0.168 HD
HETATM    4  N   DXK A1001      10.093   8.303  11.056  1.00  0.00    -0.326 N 
ATOM      5  HN  DXK A1001      10.836   7.612  11.154  1.00  0.00     0.169 HD
HETATM    6  C   DXK A1001      10.380   9.605  11.232  1.00  0.00     0.138 A 
HETATM    7  N   DXK A1001      11.525  10.244  11.516  1.00  0.00    -0.281 N 
HETATM    8  C   DXK A1001      12.833   9.615  11.723  1.00  0.00     0.179 C 
HETATM    9  N   DXK A1001      11.335  11.459  11.592  1.00  0.00    -0.307 N 
ATOM     10  HN  DXK A1001      12.044  12.170  11.775  1.00  0.00     0.186 HD
HETATM   11  C   DXK A1001      10.025  11.675  11.390  1.00  0.00     0.126 A 
HETATM   12  C   DXK A1001       9.412  10.511  11.134  1.00  0.00     0.065 A 
HETATM   13  C   DXK A1001       8.146  10.106  10.839  1.00  0.00     0.095 A 
ENDROOT
BRANCH   1  14
HETATM   14  C   DXK A1001       8.599   6.531  10.574  1.00  0.00     0.023 A 
HETATM   15  C   DXK A1001       9.339   5.567  11.263  1.00  0.00     0.018 A 
HETATM   16  C   DXK A1001       9.081   4.208  11.083  1.00  0.00     0.018 A 
HETATM   17  C   DXK A1001       8.080   3.802  10.212  1.00  0.00     0.087 A 
HETATM   18  N   DXK A1001       7.334   4.756   9.513  1.00  0.00    -0.374 N 
HETATM   19  C   DXK A1001       7.595   6.122   9.698  1.00  0.00     0.102 A 
ATOM     20  HN  DXK A1001       6.601   4.459   8.870  1.00  0.00     0.164 HD
ENDBRANCH   1  14
BRANCH  13  21
HETATM   21  N   DXK A1001       7.137  11.003  10.728  1.00  0.00    -0.288 NA
HETATM   22  H   DXK A1001       6.513  10.721   9.971  1.00  0.00     0.125 HD
HETATM   23  H   DXK A1001       6.615  11.037  11.603  1.00  0.00     0.125 HD
ENDBRANCH  13  21
TORSDOF 2
ENDMDL
MODEL 8
REMARK VINA RESULT:    -3.466      0.596      0.618
REMARK INTER + INTRA:          -4.013
REMARK INTER:                  -3.769
REMARK INTRA:                  -0.244
REMARK UNBOUND:                -0.243
REMARK  2 active torsions:
REMARK  status: ('A' for Active; 'I' for Inactive)
REMARK    1  A    between atoms: C_7  and  C_8 
REMARK    2  A    between atoms: C_20  and  N_21 
ROOT
HETATM    1  C   DXK A1001       9.745   8.134  11.017  1.00  0.00     0.119 A 
HETATM    2  N   DXK A1001      10.167   6.963  11.514  1.00  0.00    -0.332 N 
ATOM      3  HN  DXK A1001       9.541   6.158  11.525  1.00  0.00     0.168 HD
HETATM    4  N   DXK A1001      10.579   9.179  11.017  1.00  0.00    -0.326 N 
ATOM      5  HN  DXK A1001      10.263  10.067  10.628  1.00  0.00     0.169 HD
HETATM    6  C   DXK A1001      11.823   9.087  11.519  1.00  0.00     0.138 A 
HETATM    7  N   DXK A1001      12.813   9.984  11.640  1.00  0.00    -0.281 N 
HETATM    8  C   DXK A1001      12.762  11.386  11.214  1.00  0.00     0.179 C 
HETATM    9  N   DXK A1001      13.803   9.469  12.162  1.00  0.00    -0.307 N 
ATOM     10  HN  DXK A1001      14.681   9.938  12.386  1.00  0.00     0.186 HD
HETATM   11  C   DXK A1001      13.514   8.175  12.381  1.00  0.00     0.126 A 
HETATM   12  C   DXK A1001      12.254   7.926  12.003  1.00  0.00     0.065 A 
HETATM   13  C   DXK A1001      11.417   6.851  12.000  1.00  0.00     0.095 A 
ENDROOT
BRANCH   1  14
HETATM   14  C   DXK A1001       8.455   8.272  10.495  1.00  0.00     0.023 A 
HETATM   15  C   DXK A1001       7.684   7.148  10.191  1.00  0.00     0.018 A 
HETATM   16  C   DXK A1001       6.396   7.286   9.674  1.00  0.00     0.018 A 
HETATM   17  C   DXK A1001       5.869   8.551   9.457  1.00  0.00     0.087 A 
HETATM   18  N   DXK A1001       6.631   9.685   9.752  1.00  0.00    -0.374 N 
HETATM   19  C   DXK A1001       7.926   9.542  10.274  1.00  0.00     0.102 A 
ATOM     20  HN  DXK A1001       6.246  10.615   9.589  1.00  0.00     0.164 HD
ENDBRANCH   1  14
BRANCH  13  21
HETATM   21  N   DXK A1001      11.821   5.654  12.488  1.00  0.00    -0.288 NA
HETATM   22  H   DXK A1001      11.350   4.904  11.983  1.00  0.00     0.125 HD
HETATM   23  H   DXK A1001      12.830   5.561  12.371  1.00  0.00     0.125 HD
ENDBRANCH  13  21
TORSDOF 2
ENDMDL
MODEL 9
REMARK VINA RESULT:    -3.433      1.640      6.065
REMARK INTER + INTRA:          -3.977
REMARK INTER:                  -3.736
REMARK INTRA:                  -0.241
REMARK UNBOUND:                -0.243
REMARK  2 active torsions:
REMARK  status: ('A' for Active; 'I' for Inactive)
REMARK    1  A    between atoms: C_7  and  C_8 
REMARK    2  A    between atoms: C_20  and  N_21 
ROOT
HETATM    1  C   DXK A1001       9.572   9.758  10.899  1.00  0.00     0.119 A 
HETATM    2  N   DXK A1001       8.735  10.804  10.898  1.00  0.00    -0.332 N 
ATOM      3  HN  DXK A1001       9.074  11.729  11.161  1.00  0.00     0.168 HD
HETATM    4  N   DXK A1001       9.107   8.552  10.556  1.00  0.00    -0.326 N 
ATOM      5  HN  DXK A1001       9.746   7.757  10.545  1.00  0.00     0.169 HD
HETATM    6  C   DXK A1001       7.817   8.363  10.225  1.00  0.00     0.138 A 
HETATM    7  N   DXK A1001       7.131   7.266   9.869  1.00  0.00    -0.281 N 
HETATM    8  C   DXK A1001       7.678   5.912   9.743  1.00  0.00     0.179 C 
HETATM    9  N   DXK A1001       5.953   7.546   9.646  1.00  0.00    -0.307 N 
ATOM     10  HN  DXK A1001       5.217   6.892   9.380  1.00  0.00     0.186 HD
HETATM   11  C   DXK A1001       5.815   8.872   9.817  1.00  0.00     0.126 A 
HETATM   12  C   DXK A1001       6.983   9.398  10.209  1.00  0.00     0.065 A 
HETATM   13  C   DXK A1001       7.447  10.632  10.548  1.00  0.00     0.095 A 
ENDROOT
BRANCH   1  14
HETATM   14  C   DXK A1001      10.918   9.912  11.245  1.00  0.00     0.023 A 
HETATM   15  C   DXK A1001      11.584  11.116  11.001  1.00  0.00     0.018 A 
HETATM   16  C   DXK A1001      12.926  11.271  11.350  1.00  0.00     0.018 A 
HETATM   17  C   DXK A1001      13.612  10.223  11.947  1.00  0.00     0.087 A 
HETATM   18  N   DXK A1001      12.959   9.012  12.194  1.00  0.00    -0.374 N 
HETATM   19  C   DXK A1001      11.609   8.860  11.843  1.00  0.00     0.102 A 
ATOM     20  HN  DXK A1001      13.463   8.240  12.629  1.00  0.00     0.164 HD
ENDBRANCH   1  14
BRANCH  13  21
HETATM   21  N   DXK A1001       6.623  11.709  10.546  1.00  0.00    -0.288 NA
HETATM   22  H   DXK A1001       6.630  12.144  11.469  1.00  0.00     0.125 HD
HETATM   23  H   DXK A1001       6.945  12.382   9.851  1.00  0.00     0.125 HD
ENDBRANCH  13  21
TORSDOF 2
ENDMDL
MODEL 10
REMARK VINA RESULT:    -3.433      2.420      5.595
REMARK INTER + INTRA:          -3.977
REMARK INTER:                  -3.736
REMARK INTRA:                  -0.241
REMARK UNBOUND:                -0.243
REMARK  2 active torsions:
REMARK  status: ('A' for Active; 'I' for Inactive)
REMARK    1  A    between atoms: C_7  and  C_8 
REMARK    2  A    between atoms: C_20  and  N_21 
ROOT
HETATM    1  C   DXK A1001       8.717   7.632  10.858  1.00  0.00     0.119 A 
HETATM    2  N   DXK A1001       9.534   8.666  11.104  1.00  0.00    -0.332 N 
ATOM      3  HN  DXK A1001      10.436   8.508  11.553  1.00  0.00     0.168 HD
HETATM    4  N   DXK A1001       7.537   7.859  10.273  1.00  0.00    -0.326 N 
ATOM      5  HN  DXK A1001       6.920   7.072  10.075  1.00  0.00     0.169 HD
HETATM    6  C   DXK A1001       7.144   9.101   9.940  1.00  0.00     0.138 A 
HETATM    7  N   DXK A1001       6.022   9.568   9.372  1.00  0.00    -0.281 N 
HETATM    8  C   DXK A1001       4.875   8.763   8.942  1.00  0.00     0.179 C 
HETATM    9  N   DXK A1001       6.079  10.792   9.242  1.00  0.00    -0.307 N 
ATOM     10  HN  DXK A1001       5.350  11.393   8.858  1.00  0.00     0.186 HD
HETATM   11  C   DXK A1001       7.278  11.189   9.699  1.00  0.00     0.126 A 
HETATM   12  C   DXK A1001       7.953  10.131  10.169  1.00  0.00     0.065 A 
HETATM   13  C   DXK A1001       9.162   9.911  10.756  1.00  0.00     0.095 A 
ENDROOT
BRANCH   1  14
HETATM   14  C   DXK A1001       9.086   6.326  11.198  1.00  0.00     0.023 A 
HETATM   15  C   DXK A1001       8.673   5.243  10.418  1.00  0.00     0.018 A 
HETATM   16  C   DXK A1001       9.044   3.941  10.754  1.00  0.00     0.018 A 
HETATM   17  C   DXK A1001       9.831   3.712  11.874  1.00  0.00     0.087 A 
HETATM   18  N   DXK A1001      10.248   4.786  12.665  1.00  0.00    -0.374 N 
HETATM   19  C   DXK A1001       9.875   6.095  12.323  1.00  0.00     0.102 A 
ATOM     20  HN  DXK A1001      10.823   4.619  13.490  1.00  0.00     0.164 HD
ENDBRANCH   1  14
BRANCH  13  21
HETATM   21  N   DXK A1001      10.010  10.938  11.007  1.00  0.00    -0.288 NA
HETATM   22  H   DXK A1001      10.920  10.568  11.282  1.00  0.00     0.125 HD
HETATM   23  H   DXK A1001      10.114  11.507  10.167  1.00  0.00     0.125 HD
ENDBRANCH  13  21
TORSDOF 2
ENDMDL
MODEL 11
REMARK VINA RESULT:    -3.430      1.246      3.213
REMARK INTER + INTRA:          -3.974
REMARK INTER:                  -3.729
REMARK INTRA:                  -0.245
REMARK UNBOUND:                -0.243
REMARK  2 active torsions:
REMARK  status: ('A' for Active; 'I' for Inactive)
REMARK    1  A    between atoms: C_7  and  C_8 
REMARK    2  A    between atoms: C_20  and  N_21 
ROOT
HETATM    1  C   DXK A1001      10.124   9.112  10.861  1.00  0.00     0.119 A 
HETATM    2  N   DXK A1001      11.340   9.676  10.850  1.00  0.00    -0.332 N 
ATOM      3  HN  DXK A1001      11.461  10.621  10.487  1.00  0.00     0.168 HD
HETATM    4  N   DXK A1001       9.987   7.870  11.336  1.00  0.00    -0.326 N 
ATOM      5  HN  DXK A1001       9.061   7.444  11.356  1.00  0.00     0.169 HD
HETATM    6  C   DXK A1001      11.042   7.169  11.789  1.00  0.00     0.138 A 
HETATM    7  N   DXK A1001      11.151   5.928  12.287  1.00  0.00    -0.281 N 
HETATM    8  C   DXK A1001      10.052   4.975  12.473  1.00  0.00     0.179 C 
HETATM    9  N   DXK A1001      12.320   5.683  12.587  1.00  0.00    -0.307 N 
ATOM     10  HN  DXK A1001      12.675   4.804  12.965  1.00  0.00     0.186 HD
HETATM   11  C   DXK A1001      13.042   6.785  12.324  1.00  0.00     0.126 A 
HETATM   12  C   DXK A1001      12.249   7.726  11.793  1.00  0.00     0.065 A 
HETATM   13  C   DXK A1001      12.400   8.993  11.320  1.00  0.00     0.095 A 
ENDROOT
BRANCH   1  14
HETATM   14  C   DXK A1001       9.004   9.805  10.391  1.00  0.00     0.023 A 
HETATM   15  C   DXK A1001       9.148  11.020   9.716  1.00  0.00     0.018 A 
HETATM   16  C   DXK A1001       8.031  11.709   9.244  1.00  0.00     0.018 A 
HETATM   17  C   DXK A1001       6.761  11.188   9.442  1.00  0.00     0.087 A 
HETATM   18  N   DXK A1001       6.602   9.975  10.118  1.00  0.00    -0.374 N 
HETATM   19  C   DXK A1001       7.727   9.284  10.591  1.00  0.00     0.102 A 
ATOM     20  HN  DXK A1001       5.668   9.593  10.268  1.00  0.00     0.164 HD
ENDBRANCH   1  14
BRANCH  13  21
HETATM   21  N   DXK A1001      13.617   9.590  11.307  1.00  0.00    -0.288 NA
HETATM   22  H   DXK A1001      14.318   8.940  11.661  1.00  0.00     0.125 HD
HETATM   23  H   DXK A1001      13.853   9.858  10.351  1.00  0.00     0.125 HD
ENDBRANCH  13  21
TORSDOF 2
ENDMDL
MODEL 12
REMARK VINA RESULT:    -3.403      1.387      5.621
REMARK INTER + INTRA:          -3.945
REMARK INTER:                  -3.700
REMARK INTRA:                  -0.245
REMARK UNBOUND:                -0.243
REMARK  2 active torsions:
REMARK  status: ('A' for Active; 'I' for Inactive)
REMARK    1  A    between atoms: C_7  and  C_8 
REMARK    2  A    between atoms: C_20  and  N_21 
ROOT
HETATM    1  C   DXK A1001       9.617   8.311  10.872  1.00  0.00     0.119 A 
HETATM    2  N   DXK A1001       9.074   7.105  10.656  1.00  0.00    -0.332 N 
ATOM      3  HN  DXK A1001       9.626   6.261  10.810  1.00  0.00     0.168 HD
HETATM    4  N   DXK A1001       8.879   9.405  10.657  1.00  0.00    -0.326 N 
ATOM      5  HN  DXK A1001       9.287  10.323  10.833  1.00  0.00     0.169 HD
HETATM    6  C   DXK A1001       7.610   9.323  10.217  1.00  0.00     0.138 A 
HETATM    7  N   DXK A1001       6.699  10.262   9.921  1.00  0.00    -0.281 N 
HETATM    8  C   DXK A1001       6.890  11.712  10.025  1.00  0.00     0.179 C 
HETATM    9  N   DXK A1001       5.646   9.741   9.548  1.00  0.00    -0.307 N 
ATOM     10  HN  DXK A1001       4.805  10.231   9.245  1.00  0.00     0.186 HD
HETATM   11  C   DXK A1001       5.812   8.409   9.615  1.00  0.00     0.126 A 
HETATM   12  C   DXK A1001       7.060   8.130  10.012  1.00  0.00     0.065 A 
HETATM   13  C   DXK A1001       7.799   7.009  10.235  1.00  0.00     0.095 A 
ENDROOT
BRANCH   1  14
HETATM   14  C   DXK A1001      10.935   8.438  11.322  1.00  0.00     0.023 A 
HETATM   15  C   DXK A1001      11.584   9.674  11.288  1.00  0.00     0.018 A 
HETATM   16  C   DXK A1001      12.897   9.802  11.741  1.00  0.00     0.018 A 
HETATM   17  C   DXK A1001      13.572   8.693  12.231  1.00  0.00     0.087 A 
HETATM   18  N   DXK A1001      12.936   7.449  12.267  1.00  0.00    -0.374 N 
HETATM   19  C   DXK A1001      11.614   7.324  11.812  1.00  0.00     0.102 A 
ATOM     20  HN  DXK A1001      13.431   6.632  12.623  1.00  0.00     0.164 HD
ENDBRANCH   1  14
BRANCH  13  21
HETATM   21  N   DXK A1001       7.271   5.777  10.033  1.00  0.00    -0.288 NA
HETATM   22  H   DXK A1001       6.358   5.721  10.483  1.00  0.00     0.125 HD
HETATM   23  H   DXK A1001       7.168   5.611   9.032  1.00  0.00     0.125 HD
ENDBRANCH  13  21
TORSDOF 2
ENDMDL
MODEL 13
REMARK VINA RESULT:    -3.334      1.177      1.298
REMARK INTER + INTRA:          -3.870
REMARK INTER:                  -3.636
REMARK INTRA:                  -0.235
REMARK UNBOUND:                -0.243
REMARK  2 active torsions:
REMARK  status: ('A' for Active; 'I' for Inactive)
REMARK    1  A    between atoms: C_7  and  C_8 
REMARK    2  A    between atoms: C_20  and  N_21 
ROOT
HETATM    1  C   DXK A1001       9.692   7.618  11.074  1.00  0.00     0.119 A 
HETATM    2  N   DXK A1001      10.301   6.581  11.666  1.00  0.00    -0.332 N 
ATOM      3  HN  DXK A1001       9.808   5.696  11.778  1.00  0.00     0.168 HD
HETATM    4  N   DXK A1001      10.353   8.772  10.941  1.00  0.00    -0.326 N 
ATOM      5  HN  DXK A1001       9.894   9.558  10.480  1.00  0.00     0.169 HD
HETATM    6  C   DXK A1001      11.608   8.921  11.400  1.00  0.00     0.138 A 
HETATM    7  N   DXK A1001      12.450   9.967  11.395  1.00  0.00    -0.281 N 
HETATM    8  C   DXK A1001      12.171  11.293  10.837  1.00  0.00     0.179 C 
HETATM    9  N   DXK A1001      13.519   9.663  11.925  1.00  0.00    -0.307 N 
ATOM     10  HN  DXK A1001      14.319  10.281  12.068  1.00  0.00     0.186 HD
HETATM   11  C   DXK A1001      13.440   8.370  12.280  1.00  0.00     0.126 A 
HETATM   12  C   DXK A1001      12.225   7.895  11.976  1.00  0.00     0.065 A 
HETATM   13  C   DXK A1001      11.565   6.711  12.110  1.00  0.00     0.095 A 
ENDROOT
BRANCH   1  14
HETATM   14  C   DXK A1001       8.384   7.505  10.592  1.00  0.00     0.023 A 
HETATM   15  C   DXK A1001       8.055   6.534   9.644  1.00  0.00     0.018 A 
HETATM   16  C   DXK A1001       6.749   6.419   9.165  1.00  0.00     0.018 A 
HETATM   17  C   DXK A1001       5.763   7.275   9.632  1.00  0.00     0.087 A 
HETATM   18  N   DXK A1001       6.079   8.254  10.578  1.00  0.00    -0.374 N 
HETATM   19  C   DXK A1001       7.392   8.366  11.059  1.00  0.00     0.102 A 
ATOM     20  HN  DXK A1001       5.355   8.886  10.920  1.00  0.00     0.164 HD
ENDBRANCH   1  14
BRANCH  13  21
HETATM   21  N   DXK A1001      12.162   5.645  12.696  1.00  0.00    -0.288 NA
HETATM   22  H   DXK A1001      12.659   5.102  11.989  1.00  0.00     0.125 HD
HETATM   23  H   DXK A1001      12.822   5.970  13.402  1.00  0.00     0.125 HD
ENDBRANCH  13  21
TORSDOF 2
ENDMDL
MODEL 14
REMARK VINA RESULT:    -3.316      0.733      1.210
REMARK INTER + INTRA:          -3.850
REMARK INTER:                  -3.604
REMARK INTRA:                  -0.246
REMARK UNBOUND:                -0.243
REMARK  2 active torsions:
REMARK  status: ('A' for Active; 'I' for Inactive)
REMARK    1  A    between atoms: C_7  and  C_8 
REMARK    2  A    between atoms: C_20  and  N_21 
ROOT
HETATM    1  C   DXK A1001       9.612   8.883  10.816  1.00  0.00     0.119 A 
HETATM    2  N   DXK A1001       9.870   7.665  11.314  1.00  0.00    -0.332 N 
ATOM      3  HN  DXK A1001       9.143   6.950  11.314  1.00  0.00     0.168 HD
HETATM    4  N   DXK A1001      10.576   9.809  10.829  1.00  0.00    -0.326 N 
ATOM      5  HN  DXK A1001      10.385  10.732  10.440  1.00  0.00     0.169 HD
HETATM    6  C   DXK A1001      11.792   9.552  11.344  1.00  0.00     0.138 A 
HETATM    7  N   DXK A1001      12.890  10.310  11.480  1.00  0.00    -0.281 N 
HETATM    8  C   DXK A1001      13.030  11.707  11.058  1.00  0.00     0.179 C 
HETATM    9  N   DXK A1001      13.798   9.667  12.010  1.00  0.00    -0.307 N 
ATOM     10  HN  DXK A1001      14.727  10.016  12.245  1.00  0.00     0.186 HD
HETATM   11  C   DXK A1001      13.338   8.423  12.222  1.00  0.00     0.126 A 
HETATM   12  C   DXK A1001      12.060   8.343  11.828  1.00  0.00     0.065 A 
HETATM   13  C   DXK A1001      11.089   7.389  11.812  1.00  0.00     0.095 A 
ENDROOT
BRANCH   1  14
HETATM   14  C   DXK A1001       8.358   9.192  10.280  1.00  0.00     0.023 A 
HETATM   15  C   DXK A1001       8.062  10.491   9.861  1.00  0.00     0.018 A 
HETATM   16  C   DXK A1001       6.812  10.798   9.323  1.00  0.00     0.018 A 
HETATM   17  C   DXK A1001       5.849   9.808   9.200  1.00  0.00     0.087 A 
HETATM   18  N   DXK A1001       6.130   8.504   9.618  1.00  0.00    -0.374 N 
HETATM   19  C   DXK A1001       7.388   8.198  10.158  1.00  0.00     0.102 A 
ATOM     20  HN  DXK A1001       5.421   7.777   9.532  1.00  0.00     0.164 HD
ENDBRANCH   1  14
BRANCH  13  21
HETATM   21  N   DXK A1001      11.326   6.147  12.301  1.00  0.00    -0.288 NA
HETATM   22  H   DXK A1001      12.294   5.886  12.110  1.00  0.00     0.125 HD
HETATM   23  H   DXK A1001      11.165   6.141  13.308  1.00  0.00     0.125 HD
ENDBRANCH  13  21
TORSDOF 2
ENDMDL
MODEL 15
REMARK VINA RESULT:    -3.010      1.583      2.940
REMARK INTER + INTRA:          -3.518
REMARK INTER:                  -3.275
REMARK INTRA:                  -0.243
REMARK UNBOUND:                -0.243
REMARK  2 active torsions:
REMARK  status: ('A' for Active; 'I' for Inactive)
REMARK    1  A    between atoms: C_7  and  C_8 
REMARK    2  A    between atoms: C_20  and  N_21 
ROOT
HETATM    1  C   DXK A1001       9.283   8.480  10.678  1.00  0.00     0.119 A 
HETATM    2  N   DXK A1001       9.434   9.811  10.656  1.00  0.00    -0.332 N 
ATOM      3  HN  DXK A1001       8.674  10.406  10.324  1.00  0.00     0.168 HD
HETATM    4  N   DXK A1001      10.292   7.718  11.111  1.00  0.00    -0.326 N 
ATOM      5  HN  DXK A1001      10.174   6.705  11.140  1.00  0.00     0.169 HD
HETATM    6  C   DXK A1001      11.458   8.254  11.511  1.00  0.00     0.138 A 
HETATM    7  N   DXK A1001      12.596   7.702  11.961  1.00  0.00    -0.281 N 
HETATM    8  C   DXK A1001      12.845   6.269  12.141  1.00  0.00     0.179 C 
HETATM    9  N   DXK A1001      13.426   8.574  12.221  1.00  0.00    -0.307 N 
ATOM     10  HN  DXK A1001      14.377   8.421  12.558  1.00  0.00     0.186 HD
HETATM   11  C   DXK A1001      12.850   9.763  11.980  1.00  0.00     0.126 A 
HETATM   12  C   DXK A1001      11.612   9.575  11.505  1.00  0.00     0.065 A 
HETATM   13  C   DXK A1001      10.588  10.362  11.074  1.00  0.00     0.095 A 
ENDROOT
BRANCH   1  14
HETATM   14  C   DXK A1001       8.088   7.883  10.262  1.00  0.00     0.023 A 
HETATM   15  C   DXK A1001       6.895   8.610  10.249  1.00  0.00     0.018 A 
HETATM   16  C   DXK A1001       5.705   8.016   9.830  1.00  0.00     0.018 A 
HETATM   17  C   DXK A1001       5.698   6.690   9.421  1.00  0.00     0.087 A 
HETATM   18  N   DXK A1001       6.884   5.950   9.433  1.00  0.00    -0.374 N 
HETATM   19  C   DXK A1001       8.080   6.551   9.853  1.00  0.00     0.102 A 
ATOM     20  HN  DXK A1001       6.880   4.975   9.137  1.00  0.00     0.164 HD
ENDBRANCH   1  14
BRANCH  13  21
HETATM   21  N   DXK A1001      10.712  11.712  11.050  1.00  0.00    -0.288 NA
HETATM   22  H   DXK A1001      10.121  12.094  10.312  1.00  0.00     0.125 HD
HETATM   23  H   DXK A1001      10.423  12.095  11.950  1.00  0.00     0.125 HD
ENDBRANCH  13  21
TORSDOF 2
ENDMDL
MODEL 16
REMARK VINA RESULT:    -2.993      1.252      5.461
REMARK INTER + INTRA:          -3.499
REMARK INTER:                  -3.253
REMARK INTRA:                  -0.246
REMARK UNBOUND:                -0.243
REMARK  2 active torsions:
REMARK  status: ('A' for Active; 'I' for Inactive)
REMARK    1  A    between atoms: C_7  and  C_8 
REMARK    2  A    between atoms: C_20  and  N_21 
ROOT
HETATM    1  C   DXK A1001      10.302   8.972  10.855  1.00  0.00     0.119 A 
HETATM    2  N   DXK A1001      10.171   7.674  11.161  1.00  0.00    -0.332 N 
ATOM      3  HN  DXK A1001      10.953   7.165  11.573  1.00  0.00     0.168 HD
HETATM    4  N   DXK A1001       9.267   9.620  10.311  1.00  0.00    -0.326 N 
ATOM      5  HN  DXK A1001       9.362  10.611  10.088  1.00  0.00     0.169 HD
HETATM    6  C   DXK A1001       8.104   8.996  10.049  1.00  0.00     0.138 A 
HETATM    7  N   DXK A1001       6.956   9.425   9.503  1.00  0.00    -0.281 N 
HETATM    8  C   DXK A1001       6.682  10.786   9.033  1.00  0.00     0.179 C 
HETATM    9  N   DXK A1001       6.133   8.510   9.452  1.00  0.00    -0.307 N 
ATOM     10  HN  DXK A1001       5.192   8.566   9.063  1.00  0.00     0.186 HD
HETATM   11  C   DXK A1001       6.703   7.425  10.002  1.00  0.00     0.126 A 
HETATM   12  C   DXK A1001       7.962   7.712  10.361  1.00  0.00     0.065 A 
HETATM   13  C   DXK A1001       9.005   7.043  10.924  1.00  0.00     0.095 A 
ENDROOT
BRANCH   1  14
HETATM   14  C   DXK A1001      11.497   9.654  11.104  1.00  0.00     0.023 A 
HETATM   15  C   DXK A1001      11.590  11.031  10.891  1.00  0.00     0.018 A 
HETATM   16  C   DXK A1001      12.781  11.712  11.143  1.00  0.00     0.018 A 
HETATM   17  C   DXK A1001      13.889  11.020  11.609  1.00  0.00     0.087 A 
HETATM   18  N   DXK A1001      13.812   9.641  11.822  1.00  0.00    -0.374 N 
HETATM   19  C   DXK A1001      12.612   8.959  11.570  1.00  0.00     0.102 A 
ATOM     20  HN  DXK A1001      14.627   9.130  12.161  1.00  0.00     0.164 HD
ENDBRANCH   1  14
BRANCH  13  21
HETATM   21  N   DXK A1001       8.896   5.733  11.252  1.00  0.00    -0.288 NA
HETATM   22  H   DXK A1001       8.016   5.365  10.892  1.00  0.00     0.125 HD
HETATM   23  H   DXK A1001       9.674   5.214  10.844  1.00  0.00     0.125 HD
ENDBRANCH  13  21
TORSDOF 2
ENDMDL
MODEL 17
REMARK VINA RESULT:    -2.947      2.527      5.128
REMARK INTER + INTRA:          -3.449
REMARK INTER:                  -3.206
REMARK INTRA:                  -0.243
REMARK UNBOUND:                -0.243
REMARK  2 active torsions:
REMARK  status: ('A' for Active; 'I' for Inactive)
REMARK    1  A    between atoms: C_7  and  C_8 
REMARK    2  A    between atoms: C_20  and  N_21 
ROOT
HETATM    1  C   DXK A1001       8.321   7.327  10.604  1.00  0.00     0.119 A 
HETATM    2  N   DXK A1001       7.104   7.344  10.042  1.00  0.00    -0.332 N 
ATOM      3  HN  DXK A1001       6.601   6.470   9.887  1.00  0.00     0.168 HD
HETATM    4  N   DXK A1001       8.966   8.482  10.794  1.00  0.00    -0.326 N 
ATOM      5  HN  DXK A1001       9.887   8.472  11.231  1.00  0.00     0.169 HD
HETATM    6  C   DXK A1001       8.429   9.658  10.421  1.00  0.00     0.138 A 
HETATM    7  N   DXK A1001       8.884  10.918  10.493  1.00  0.00    -0.281 N 
HETATM    8  C   DXK A1001      10.176  11.337  11.047  1.00  0.00     0.179 C 
HETATM    9  N   DXK A1001       8.056  11.704  10.033  1.00  0.00    -0.307 N 
ATOM     10  HN  DXK A1001       8.164  12.715   9.950  1.00  0.00     0.186 HD
HETATM   11  C   DXK A1001       6.984  10.986   9.659  1.00  0.00     0.126 A 
HETATM   12  C   DXK A1001       7.218   9.685   9.875  1.00  0.00     0.065 A 
HETATM   13  C   DXK A1001       6.547   8.515   9.684  1.00  0.00     0.095 A 
ENDROOT
BRANCH   1  14
HETATM   14  C   DXK A1001       8.917   6.124  10.997  1.00  0.00     0.023 A 
HETATM   15  C   DXK A1001       8.554   4.918  10.392  1.00  0.00     0.018 A 
HETATM   16  C   DXK A1001       9.151   3.719  10.781  1.00  0.00     0.018 A 
HETATM   17  C   DXK A1001      10.116   3.717  11.778  1.00  0.00     0.087 A 
HETATM   18  N   DXK A1001      10.486   4.916  12.394  1.00  0.00    -0.374 N 
HETATM   19  C   DXK A1001       9.885   6.121  11.999  1.00  0.00     0.102 A 
ATOM     20  HN  DXK A1001      11.192   4.916  13.129  1.00  0.00     0.164 HD
ENDBRANCH   1  14
BRANCH  13  21
HETATM   21  N   DXK A1001       5.311   8.505   9.127  1.00  0.00    -0.288 NA
HETATM   22  H   DXK A1001       4.609   8.396   9.859  1.00  0.00     0.125 HD
HETATM   23  H   DXK A1001       5.154   9.383   8.633  1.00  0.00     0.125 HD
ENDBRANCH  13  21
TORSDOF 2
ENDMDL
MODEL 18
REMARK VINA RESULT:    -2.903      1.432      5.439
REMARK INTER + INTRA:          -3.401
REMARK INTER:                  -3.156
REMARK INTRA:                  -0.245
REMARK UNBOUND:                -0.243
REMARK  2 active torsions:
REMARK  status: ('A' for Active; 'I' for Inactive)
REMARK    1  A    between atoms: C_7  and  C_8 
REMARK    2  A    between atoms: C_20  and  N_21 
ROOT
HETATM    1  C   DXK A1001       9.981   8.455  10.775  1.00  0.00     0.119 A 
HETATM    2  N   DXK A1001       9.772   7.137  10.898  1.00  0.00    -0.332 N 
ATOM      3  HN  DXK A1001      10.496   6.540  11.298  1.00  0.00     0.168 HD
HETATM    4  N   DXK A1001       9.021   9.219  10.244  1.00  0.00    -0.326 N 
ATOM      5  HN  DXK A1001       9.174  10.224  10.161  1.00  0.00     0.169 HD
HETATM    6  C   DXK A1001       7.859   8.694   9.816  1.00  0.00     0.138 A 
HETATM    7  N   DXK A1001       6.778   9.247   9.246  1.00  0.00    -0.281 N 
HETATM    8  C   DXK A1001       6.599  10.669   8.939  1.00  0.00     0.179 C 
HETATM    9  N   DXK A1001       5.925   8.389   9.013  1.00  0.00    -0.307 N 
ATOM     10  HN  DXK A1001       5.022   8.542   8.565  1.00  0.00     0.186 HD
HETATM   11  C   DXK A1001       6.404   7.216   9.458  1.00  0.00     0.126 A 
HETATM   12  C   DXK A1001       7.639   7.389   9.945  1.00  0.00     0.065 A 
HETATM   13  C   DXK A1001       8.605   6.602  10.493  1.00  0.00     0.095 A 
ENDROOT
BRANCH   1  14
HETATM   14  C   DXK A1001      11.179   9.038  11.200  1.00  0.00     0.023 A 
HETATM   15  C   DXK A1001      12.144   8.278  11.866  1.00  0.00     0.018 A 
HETATM   16  C   DXK A1001      13.341   8.858  12.286  1.00  0.00     0.018 A 
HETATM   17  C   DXK A1001      13.582  10.203  12.044  1.00  0.00     0.087 A 
HETATM   18  N   DXK A1001      12.624  10.975  11.382  1.00  0.00    -0.374 N 
HETATM   19  C   DXK A1001      11.421  10.388  10.959  1.00  0.00     0.102 A 
ATOM     20  HN  DXK A1001      12.798  11.964  11.206  1.00  0.00     0.164 HD
ENDBRANCH   1  14
BRANCH  13  21
HETATM   21  N   DXK A1001       8.416   5.268  10.637  1.00  0.00    -0.288 NA
HETATM   22  H   DXK A1001       7.651   5.101  11.291  1.00  0.00     0.125 HD
HETATM   23  H   DXK A1001       8.186   4.857   9.732  1.00  0.00     0.125 HD
ENDBRANCH  13  21
TORSDOF 2
ENDMDL
MODEL 19
REMARK VINA RESULT:    -2.878      1.628      2.846
REMARK INTER + INTRA:          -3.374
REMARK INTER:                  -3.133
REMARK INTRA:                  -0.241
REMARK UNBOUND:                -0.243
REMARK  2 active torsions:
REMARK  status: ('A' for Active; 'I' for Inactive)
REMARK    1  A    between atoms: C_7  and  C_8 
REMARK    2  A    between atoms: C_20  and  N_21 
ROOT
HETATM    1  C   DXK A1001       9.063   8.376  10.768  1.00  0.00     0.119 A 
HETATM    2  N   DXK A1001       9.081   9.714  10.830  1.00  0.00    -0.332 N 
ATOM      3  HN  DXK A1001       8.268  10.250  10.526  1.00  0.00     0.168 HD
HETATM    4  N   DXK A1001      10.140   7.691  11.166  1.00  0.00    -0.326 N 
ATOM      5  HN  DXK A1001      10.123   6.672  11.130  1.00  0.00     0.169 HD
HETATM    6  C   DXK A1001      11.245   8.315  11.613  1.00  0.00     0.138 A 
HETATM    7  N   DXK A1001      12.428   7.851  12.042  1.00  0.00    -0.281 N 
HETATM    8  C   DXK A1001      12.818   6.441  12.136  1.00  0.00     0.179 C 
HETATM    9  N   DXK A1001      13.167   8.782  12.366  1.00  0.00    -0.307 N 
ATOM     10  HN  DXK A1001      14.126   8.703  12.704  1.00  0.00     0.186 HD
HETATM   11  C   DXK A1001      12.477   9.922  12.191  1.00  0.00     0.126 A 
HETATM   12  C   DXK A1001      11.266   9.642  11.689  1.00  0.00     0.065 A 
HETATM   13  C   DXK A1001      10.172  10.350  11.295  1.00  0.00     0.095 A 
ENDROOT
BRANCH   1  14
HETATM   14  C   DXK A1001       7.936   7.691  10.301  1.00  0.00     0.023 A 
HETATM   15  C   DXK A1001       8.072   6.499   9.586  1.00  0.00     0.018 A 
HETATM   16  C   DXK A1001       6.948   5.813   9.124  1.00  0.00     0.018 A 
HETATM   17  C   DXK A1001       5.680   6.315   9.374  1.00  0.00     0.087 A 
HETATM   18  N   DXK A1001       5.529   7.509  10.086  1.00  0.00    -0.374 N 
HETATM   19  C   DXK A1001       6.661   8.195  10.550  1.00  0.00     0.102 A 
ATOM     20  HN  DXK A1001       4.597   7.881  10.267  1.00  0.00     0.164 HD
ENDBRANCH   1  14
BRANCH  13  21
HETATM   21  N   DXK A1001      10.161  11.703  11.356  1.00  0.00    -0.288 NA
HETATM   22  H   DXK A1001       9.365  12.061  10.827  1.00  0.00     0.125 HD
HETATM   23  H   DXK A1001      10.082  11.999  12.329  1.00  0.00     0.125 HD
ENDBRANCH  13  21
TORSDOF 2
ENDMDL
MODEL 20
REMARK VINA RESULT:    -2.814      1.226      5.448
REMARK INTER + INTRA:          -3.304
REMARK INTER:                  -3.059
REMARK INTRA:                  -0.245
REMARK UNBOUND:                -0.243
REMARK  2 active torsions:
REMARK  status: ('A' for Active; 'I' for Inactive)
REMARK    1  A    between atoms: C_7  and  C_8 
REMARK    2  A    between atoms: C_20  and  N_21 
ROOT
HETATM    1  C   DXK A1001       9.950   8.983  10.905  1.00  0.00     0.119 A 
HETATM    2  N   DXK A1001       9.557   7.706  11.004  1.00  0.00    -0.332 N 
ATOM      3  HN  DXK A1001      10.199   7.000  11.364  1.00  0.00     0.168 HD
HETATM    4  N   DXK A1001       9.096   9.892  10.424  1.00  0.00    -0.326 N 
ATOM      5  HN  DXK A1001       9.390  10.867  10.359  1.00  0.00     0.169 HD
HETATM    6  C   DXK A1001       7.858   9.552  10.024  1.00  0.00     0.138 A 
HETATM    7  N   DXK A1001       6.851  10.271   9.504  1.00  0.00    -0.281 N 
HETATM    8  C   DXK A1001       6.870  11.712   9.236  1.00  0.00     0.179 C 
HETATM    9  N   DXK A1001       5.877   9.551   9.280  1.00  0.00    -0.307 N 
ATOM     10  HN  DXK A1001       4.992   9.845   8.866  1.00  0.00     0.186 HD
HETATM   11  C   DXK A1001       6.193   8.309   9.681  1.00  0.00     0.126 A 
HETATM   12  C   DXK A1001       7.455   8.289  10.130  1.00  0.00     0.065 A 
HETATM   13  C   DXK A1001       8.313   7.356  10.626  1.00  0.00     0.095 A 
ENDROOT
BRANCH   1  14
HETATM   14  C   DXK A1001      11.233   9.375  11.302  1.00  0.00     0.023 A 
HETATM   15  C   DXK A1001      12.074   8.485  11.975  1.00  0.00     0.018 A 
HETATM   16  C   DXK A1001      13.354   8.875  12.368  1.00  0.00     0.018 A 
HETATM   17  C   DXK A1001      13.804  10.158  12.091  1.00  0.00     0.087 A 
HETATM   18  N   DXK A1001      12.971  11.059  11.422  1.00  0.00    -0.374 N 
HETATM   19  C   DXK A1001      11.684  10.664  11.027  1.00  0.00     0.102 A 
ATOM     20  HN  DXK A1001      13.299  12.004  11.222  1.00  0.00     0.164 HD
ENDBRANCH   1  14
BRANCH  13  21
HETATM   21  N   DXK A1001       7.937   6.059  10.745  1.00  0.00    -0.288 NA
HETATM   22  H   DXK A1001       6.928   5.984  10.613  1.00  0.00     0.125 HD
HETATM   23  H   DXK A1001       8.416   5.501  10.038  1.00  0.00     0.125 HD
ENDBRANCH  13  21
TORSDOF 2
ENDMDL
MODEL 21
REMARK VINA RESULT:    -2.802      1.684      5.657
REMARK INTER + INTRA:          -3.291
REMARK INTER:                  -3.045
REMARK INTRA:                  -0.246
REMARK UNBOUND:                -0.243
REMARK  2 active torsions:
REMARK  status: ('A' for Active; 'I' for Inactive)
REMARK    1  A    between atoms: C_7  and  C_8 
REMARK    2  A    between atoms: C_20  and  N_21 
ROOT
HETATM    1  C   DXK A1001       9.805   7.757  10.796  1.00  0.00     0.119 A 
HETATM    2  N   DXK A1001       9.499   6.452  10.761  1.00  0.00    -0.332 N 
ATOM      3  HN  DXK A1001      10.163   5.763  11.114  1.00  0.00     0.168 HD
HETATM    4  N   DXK A1001       8.924   8.644  10.324  1.00  0.00    -0.326 N 
ATOM      5  HN  DXK A1001       9.150   9.638  10.360  1.00  0.00     0.169 HD
HETATM    6  C   DXK A1001       7.745   8.258   9.803  1.00  0.00     0.138 A 
HETATM    7  N   DXK A1001       6.729   8.950   9.265  1.00  0.00    -0.281 N 
HETATM    8  C   DXK A1001       6.663  10.407   9.116  1.00  0.00     0.179 C 
HETATM    9  N   DXK A1001       5.828   8.189   8.910  1.00  0.00    -0.307 N 
ATOM     10  HN  DXK A1001       4.956   8.457   8.453  1.00  0.00     0.186 HD
HETATM   11  C   DXK A1001       6.205   6.941   9.234  1.00  0.00     0.126 A 
HETATM   12  C   DXK A1001       7.429   6.967   9.776  1.00  0.00     0.065 A 
HETATM   13  C   DXK A1001       8.314   6.054  10.262  1.00  0.00     0.095 A 
ENDROOT
BRANCH   1  14
HETATM   14  C   DXK A1001      11.023   8.198  11.321  1.00  0.00     0.023 A 
HETATM   15  C   DXK A1001      11.379   9.547  11.261  1.00  0.00     0.018 A 
HETATM   16  C   DXK A1001      12.593   9.988  11.789  1.00  0.00     0.018 A 
HETATM   17  C   DXK A1001      13.460   9.082  12.382  1.00  0.00     0.087 A 
HETATM   18  N   DXK A1001      13.118   7.728  12.447  1.00  0.00    -0.374 N 
HETATM   19  C   DXK A1001      11.896   7.288  11.916  1.00  0.00     0.102 A 
ATOM     20  HN  DXK A1001      13.756   7.060  12.879  1.00  0.00     0.164 HD
ENDBRANCH   1  14
BRANCH  13  21
HETATM   21  N   DXK A1001       8.026   4.730  10.247  1.00  0.00    -0.288 NA
HETATM   22  H   DXK A1001       7.236   4.561   9.624  1.00  0.00     0.125 HD
HETATM   23  H   DXK A1001       8.838   4.209   9.917  1.00  0.00     0.125 HD
ENDBRANCH  13  21
TORSDOF 2
ENDMDL
MODEL 22
REMARK VINA RESULT:    -2.795      1.596      2.277
REMARK INTER + INTRA:          -3.283
REMARK INTER:                  -3.037
REMARK INTRA:                  -0.246
REMARK UNBOUND:                -0.243
REMARK  2 active torsions:
REMARK  status: ('A' for Active; 'I' for Inactive)
REMARK    1  A    between atoms: C_7  and  C_8 
REMARK    2  A    between atoms: C_20  and  N_21 
ROOT
HETATM    1  C   DXK A1001       9.346   7.606  11.350  1.00  0.00     0.119 A 
HETATM    2  N   DXK A1001       9.126   6.303  11.577  1.00  0.00    -0.332 N 
ATOM      3  HN  DXK A1001       8.193   5.913  11.450  1.00  0.00     0.168 HD
HETATM    4  N   DXK A1001      10.576   8.099  11.528  1.00  0.00    -0.326 N 
ATOM      5  HN  DXK A1001      10.747   9.088  11.344  1.00  0.00     0.169 HD
HETATM    6  C   DXK A1001      11.592   7.323  11.943  1.00  0.00     0.138 A 
HETATM    7  N   DXK A1001      12.881   7.591  12.203  1.00  0.00    -0.281 N 
HETATM    8  C   DXK A1001      13.531   8.899  12.075  1.00  0.00     0.179 C 
HETATM    9  N   DXK A1001      13.471   6.571  12.562  1.00  0.00    -0.307 N 
ATOM     10  HN  DXK A1001      14.451   6.506  12.839  1.00  0.00     0.186 HD
HETATM   11  C   DXK A1001      12.587   5.561  12.524  1.00  0.00     0.126 A 
HETATM   12  C   DXK A1001      11.386   6.027  12.159  1.00  0.00     0.065 A 
HETATM   13  C   DXK A1001      10.140   5.511  11.973  1.00  0.00     0.095 A 
ENDROOT
BRANCH   1  14
HETATM   14  C   DXK A1001       8.313   8.447  10.925  1.00  0.00     0.023 A 
HETATM   15  C   DXK A1001       8.523   9.822  10.790  1.00  0.00     0.018 A 
HETATM   16  C   DXK A1001       7.494  10.661  10.362  1.00  0.00     0.018 A 
HETATM   17  C   DXK A1001       6.246  10.131  10.067  1.00  0.00     0.087 A 
HETATM   18  N   DXK A1001       6.021   8.759  10.202  1.00  0.00    -0.374 N 
HETATM   19  C   DXK A1001       7.058   7.917  10.630  1.00  0.00     0.102 A 
ATOM     20  HN  DXK A1001       5.103   8.369   9.989  1.00  0.00     0.164 HD
ENDBRANCH   1  14
BRANCH  13  21
HETATM   21  N   DXK A1001       9.893   4.196  12.187  1.00  0.00    -0.288 NA
HETATM   22  H   DXK A1001       9.136   3.889  11.576  1.00  0.00     0.125 HD
HETATM   23  H   DXK A1001      10.734   3.655  11.985  1.00  0.00     0.125 HD
ENDBRANCH  13  21
TORSDOF 2
ENDMDL
MODEL 23
REMARK VINA RESULT:    -2.787      2.214      3.688
REMARK INTER + INTRA:          -3.275
REMARK INTER:                  -3.033
REMARK INTRA:                  -0.242
REMARK UNBOUND:                -0.243
REMARK  2 active torsions:
REMARK  status: ('A' for Active; 'I' for Inactive)
REMARK    1  A    between atoms: C_7  and  C_8 
REMARK    2  A    between atoms: C_20  and  N_21 
ROOT
HETATM    1  C   DXK A1001       9.391   7.340  10.777  1.00  0.00     0.119 A 
HETATM    2  N   DXK A1001       8.773   8.513  10.588  1.00  0.00    -0.332 N 
ATOM      3  HN  DXK A1001       7.827   8.537  10.208  1.00  0.00     0.168 HD
HETATM    4  N   DXK A1001      10.634   7.330  11.271  1.00  0.00    -0.326 N 
ATOM      5  HN  DXK A1001      11.101   6.437  11.427  1.00  0.00     0.169 HD
HETATM    6  C   DXK A1001      11.282   8.471  11.568  1.00  0.00     0.138 A 
HETATM    7  N   DXK A1001      12.512   8.708  12.049  1.00  0.00    -0.281 N 
HETATM    8  C   DXK A1001      13.511   7.692  12.395  1.00  0.00     0.179 C 
HETATM    9  N   DXK A1001      12.701   9.918  12.176  1.00  0.00    -0.307 N 
ATOM     10  HN  DXK A1001      13.559  10.364  12.501  1.00  0.00     0.186 HD
HETATM   11  C   DXK A1001      11.570  10.542  11.808  1.00  0.00     0.126 A 
HETATM   12  C   DXK A1001      10.671   9.639  11.395  1.00  0.00     0.065 A 
HETATM   13  C   DXK A1001       9.403   9.661  10.901  1.00  0.00     0.095 A 
ENDROOT
BRANCH   1  14
HETATM   14  C   DXK A1001       8.754   6.132  10.473  1.00  0.00     0.023 A 
HETATM   15  C   DXK A1001       7.759   6.078   9.494  1.00  0.00     0.018 A 
HETATM   16  C   DXK A1001       7.127   4.873   9.187  1.00  0.00     0.018 A 
HETATM   17  C   DXK A1001       7.485   3.713   9.857  1.00  0.00     0.087 A 
HETATM   18  N   DXK A1001       8.476   3.753  10.842  1.00  0.00    -0.374 N 
HETATM   19  C   DXK A1001       9.112   4.966  11.147  1.00  0.00     0.102 A 
ATOM     20  HN  DXK A1001       8.737   2.902  11.338  1.00  0.00     0.164 HD
ENDBRANCH   1  14
BRANCH  13  21
HETATM   21  N   DXK A1001       8.752  10.834  10.709  1.00  0.00    -0.288 NA
HETATM   22  H   DXK A1001       8.531  10.942   9.719  1.00  0.00     0.125 HD
HETATM   23  H   DXK A1001       7.889  10.837  11.253  1.00  0.00     0.125 HD
ENDBRANCH  13  21
TORSDOF 2
ENDMDL
MODEL 24
REMARK VINA RESULT:    -2.693      1.876      5.940
REMARK INTER + INTRA:          -3.173
REMARK INTER:                  -2.928
REMARK INTRA:                  -0.245
REMARK UNBOUND:                -0.243
REMARK  2 active torsions:
REMARK  status: ('A' for Active; 'I' for Inactive)
REMARK    1  A    between atoms: C_7  and  C_8 
REMARK    2  A    between atoms: C_20  and  N_21 
ROOT
HETATM    1  C   DXK A1001       9.681   8.288  11.142  1.00  0.00     0.119 A 
HETATM    2  N   DXK A1001      10.030   9.561  10.913  1.00  0.00    -0.332 N 
ATOM      3  HN  DXK A1001      10.985   9.870  11.098  1.00  0.00     0.168 HD
HETATM    4  N   DXK A1001       8.424   7.904  10.898  1.00  0.00    -0.326 N 
ATOM      5  HN  DXK A1001       8.160   6.932  11.061  1.00  0.00     0.169 HD
HETATM    6  C   DXK A1001       7.499   8.769  10.445  1.00  0.00     0.138 A 
HETATM    7  N   DXK A1001       6.199   8.623  10.149  1.00  0.00    -0.281 N 
HETATM    8  C   DXK A1001       5.426   7.381  10.257  1.00  0.00     0.179 C 
HETATM    9  N   DXK A1001       5.722   9.688   9.757  1.00  0.00    -0.307 N 
ATOM     10  HN  DXK A1001       4.751   9.853   9.490  1.00  0.00     0.186 HD
HETATM   11  C   DXK A1001       6.714  10.593   9.745  1.00  0.00     0.126 A 
HETATM   12  C   DXK A1001       7.841  10.031  10.204  1.00  0.00     0.065 A 
HETATM   13  C   DXK A1001       9.120  10.432  10.439  1.00  0.00     0.095 A 
ENDROOT
BRANCH   1  14
HETATM   14  C   DXK A1001      10.612   7.360  11.622  1.00  0.00     0.023 A 
HETATM   15  C   DXK A1001      11.972   7.673  11.666  1.00  0.00     0.018 A 
HETATM   16  C   DXK A1001      12.900   6.749  12.148  1.00  0.00     0.018 A 
HETATM   17  C   DXK A1001      12.473   5.506  12.590  1.00  0.00     0.087 A 
HETATM   18  N   DXK A1001      11.115   5.178  12.549  1.00  0.00    -0.374 N 
HETATM   19  C   DXK A1001      10.184   6.110  12.065  1.00  0.00     0.102 A 
ATOM     20  HN  DXK A1001      10.801   4.263  12.870  1.00  0.00     0.164 HD
ENDBRANCH   1  14
BRANCH  13  21
HETATM   21  N   DXK A1001       9.501  11.712  10.209  1.00  0.00    -0.288 NA
HETATM   22  H   DXK A1001       9.197  12.302  10.983  1.00  0.00     0.125 HD
HETATM   23  H   DXK A1001      10.517  11.754  10.127  1.00  0.00     0.125 HD
ENDBRANCH  13  21
TORSDOF 2
ENDMDL
MODEL 25
REMARK VINA RESULT:    -2.675      2.968      4.451
REMARK INTER + INTRA:          -3.153
REMARK INTER:                  -2.912
REMARK INTRA:                  -0.241
REMARK UNBOUND:                -0.243
REMARK  2 active torsions:
REMARK  status: ('A' for Active; 'I' for Inactive)
REMARK    1  A    between atoms: C_7  and  C_8 
REMARK    2  A    between atoms: C_20  and  N_21 
ROOT
HETATM    1  C   DXK A1001       7.762   7.396   9.949  1.00  0.00     0.119 A 
HETATM    2  N   DXK A1001       7.107   6.407   9.327  1.00  0.00    -0.332 N 
ATOM      3  HN  DXK A1001       6.350   6.624   8.679  1.00  0.00     0.168 HD
HETATM    4  N   DXK A1001       8.748   7.091  10.799  1.00  0.00    -0.326 N 
ATOM      5  HN  DXK A1001       9.255   7.844  11.264  1.00  0.00     0.169 HD
HETATM    6  C   DXK A1001       9.088   5.815  11.053  1.00  0.00     0.138 A 
HETATM    7  N   DXK A1001      10.012   5.274  11.862  1.00  0.00    -0.281 N 
HETATM    8  C   DXK A1001      10.945   6.012  12.718  1.00  0.00     0.179 C 
HETATM    9  N   DXK A1001       9.986   4.044  11.787  1.00  0.00    -0.307 N 
ATOM     10  HN  DXK A1001      10.570   3.395  12.314  1.00  0.00     0.186 HD
HETATM   11  C   DXK A1001       9.047   3.716  10.884  1.00  0.00     0.126 A 
HETATM   12  C   DXK A1001       8.451   4.827  10.431  1.00  0.00     0.065 A 
HETATM   13  C   DXK A1001       7.451   5.126   9.557  1.00  0.00     0.095 A 
ENDROOT
BRANCH   1  14
HETATM   14  C   DXK A1001       7.433   8.736   9.718  1.00  0.00     0.023 A 
HETATM   15  C   DXK A1001       8.413   9.730   9.771  1.00  0.00     0.018 A 
HETATM   16  C   DXK A1001       8.085  11.066   9.536  1.00  0.00     0.018 A 
HETATM   17  C   DXK A1001       6.775  11.417   9.246  1.00  0.00     0.087 A 
HETATM   18  N   DXK A1001       5.784  10.433   9.193  1.00  0.00    -0.374 N 
HETATM   19  C   DXK A1001       6.117   9.090   9.429  1.00  0.00     0.102 A 
ATOM     20  HN  DXK A1001       4.820  10.690   8.985  1.00  0.00     0.164 HD
ENDBRANCH   1  14
BRANCH  13  21
HETATM   21  N   DXK A1001       6.779   4.145   8.907  1.00  0.00    -0.288 NA
HETATM   22  H   DXK A1001       6.726   4.370   7.913  1.00  0.00     0.125 HD
HETATM   23  H   DXK A1001       7.269   3.259   9.030  1.00  0.00     0.125 HD
ENDBRANCH  13  21
TORSDOF 2
ENDMDL
MODEL 26
REMARK VINA RESULT:    -2.603      2.273      5.615
REMARK INTER + INTRA:          -3.075
REMARK INTER:                  -2.829
REMARK INTRA:                  -0.245
REMARK UNBOUND:                -0.243
REMARK  2 active torsions:
REMARK  status: ('A' for Active; 'I' for Inactive)
REMARK    1  A    between atoms: C_7  and  C_8 
REMARK    2  A    between atoms: C_20  and  N_21 
ROOT
HETATM    1  C   DXK A1001       9.647   8.066  10.673  1.00  0.00     0.119 A 
HETATM    2  N   DXK A1001       8.558   8.440   9.988  1.00  0.00    -0.332 N 
ATOM      3  HN  DXK A1001       8.413   9.423   9.757  1.00  0.00     0.168 HD
HETATM    4  N   DXK A1001       9.817   6.774  10.973  1.00  0.00    -0.326 N 
ATOM      5  HN  DXK A1001      10.651   6.487  11.484  1.00  0.00     0.169 HD
HETATM    6  C   DXK A1001       8.912   5.845  10.615  1.00  0.00     0.138 A 
HETATM    7  N   DXK A1001       8.859   4.519  10.813  1.00  0.00    -0.281 N 
HETATM    8  C   DXK A1001       9.860   3.712  11.517  1.00  0.00     0.179 C 
HETATM    9  N   DXK A1001       7.840   4.047  10.308  1.00  0.00    -0.307 N 
ATOM     10  HN  DXK A1001       7.549   3.069  10.335  1.00  0.00     0.186 HD
HETATM   11  C   DXK A1001       7.180   5.056   9.715  1.00  0.00     0.126 A 
HETATM   12  C   DXK A1001       7.835   6.206   9.925  1.00  0.00     0.065 A 
HETATM   13  C   DXK A1001       7.656   7.517   9.606  1.00  0.00     0.095 A 
ENDROOT
BRANCH   1  14
HETATM   14  C   DXK A1001      10.606   9.004  11.071  1.00  0.00     0.023 A 
HETATM   15  C   DXK A1001      11.856   8.591  11.539  1.00  0.00     0.018 A 
HETATM   16  C   DXK A1001      12.814   9.526  11.931  1.00  0.00     0.018 A 
HETATM   17  C   DXK A1001      12.529  10.882  11.858  1.00  0.00     0.087 A 
HETATM   18  N   DXK A1001      11.281  11.309  11.395  1.00  0.00    -0.374 N 
HETATM   19  C   DXK A1001      10.321  10.366  10.999  1.00  0.00     0.102 A 
ATOM     20  HN  DXK A1001      11.069  12.305  11.344  1.00  0.00     0.164 HD
ENDBRANCH   1  14
BRANCH  13  21
HETATM   21  N   DXK A1001       6.568   7.921   8.907  1.00  0.00    -0.288 NA
HETATM   22  H   DXK A1001       6.722   8.865   8.553  1.00  0.00     0.125 HD
HETATM   23  H   DXK A1001       6.413   7.286   8.124  1.00  0.00     0.125 HD
ENDBRANCH  13  21
TORSDOF 2
ENDMDL
MODEL 27
REMARK VINA RESULT:    -2.598      1.812      5.716
REMARK INTER + INTRA:          -3.069
REMARK INTER:                  -2.824
REMARK INTRA:                  -0.245
REMARK UNBOUND:                -0.243
REMARK  2 active torsions:
REMARK  status: ('A' for Active; 'I' for Inactive)
REMARK    1  A    between atoms: C_7  and  C_8 
REMARK    2  A    between atoms: C_20  and  N_21 
ROOT
HETATM    1  C   DXK A1001      10.653   8.475  10.866  1.00  0.00     0.119 A 
HETATM    2  N   DXK A1001       9.685   8.950  10.070  1.00  0.00    -0.332 N 
ATOM      3  HN  DXK A1001       9.731   9.911   9.729  1.00  0.00     0.168 HD
HETATM    4  N   DXK A1001      10.573   7.216  11.308  1.00  0.00    -0.326 N 
ATOM      5  HN  DXK A1001      11.314   6.850  11.904  1.00  0.00     0.169 HD
HETATM    6  C   DXK A1001       9.537   6.421  10.983  1.00  0.00     0.138 A 
HETATM    7  N   DXK A1001       9.238   5.155  11.312  1.00  0.00    -0.281 N 
HETATM    8  C   DXK A1001      10.040   4.274  12.165  1.00  0.00     0.179 C 
HETATM    9  N   DXK A1001       8.179   4.811  10.785  1.00  0.00    -0.307 N 
ATOM     10  HN  DXK A1001       7.718   3.907  10.891  1.00  0.00     0.186 HD
HETATM   11  C   DXK A1001       7.742   5.844  10.046  1.00  0.00     0.126 A 
HETATM   12  C   DXK A1001       8.580   6.880  10.184  1.00  0.00     0.065 A 
HETATM   13  C   DXK A1001       8.655   8.158   9.720  1.00  0.00     0.095 A 
ENDROOT
BRANCH   1  14
HETATM   14  C   DXK A1001      11.741   9.274  11.233  1.00  0.00     0.023 A 
HETATM   15  C   DXK A1001      11.802  10.615  10.849  1.00  0.00     0.018 A 
HETATM   16  C   DXK A1001      12.886  11.412  11.219  1.00  0.00     0.018 A 
HETATM   17  C   DXK A1001      13.917  10.874  11.975  1.00  0.00     0.087 A 
HETATM   18  N   DXK A1001      13.870   9.532  12.363  1.00  0.00    -0.374 N 
HETATM   19  C   DXK A1001      12.778   8.733  11.991  1.00  0.00     0.102 A 
ATOM     20  HN  DXK A1001      14.628   9.133  12.916  1.00  0.00     0.164 HD
ENDBRANCH   1  14
BRANCH  13  21
HETATM   21  N   DXK A1001       7.695   8.661   8.907  1.00  0.00    -0.288 NA
HETATM   22  H   DXK A1001       8.053   9.487   8.428  1.00  0.00     0.125 HD
HETATM   23  H   DXK A1001       7.430   7.956   8.218  1.00  0.00     0.125 HD
ENDBRANCH  13  21
TORSDOF 2
ENDMDL
MODEL 28
REMARK VINA RESULT:    -2.495      1.793      5.581
REMARK INTER + INTRA:          -2.957
REMARK INTER:                  -2.711
REMARK INTRA:                  -0.246
REMARK UNBOUND:                -0.243
REMARK  2 active torsions:
REMARK  status: ('A' for Active; 'I' for Inactive)
REMARK    1  A    between atoms: C_7  and  C_8 
REMARK    2  A    between atoms: C_20  and  N_21 
ROOT
HETATM    1  C   DXK A1001      10.352   8.704  10.776  1.00  0.00     0.119 A 
HETATM    2  N   DXK A1001       9.332   9.188  10.054  1.00  0.00    -0.332 N 
ATOM      3  HN  DXK A1001       9.330  10.165   9.763  1.00  0.00     0.168 HD
HETATM    4  N   DXK A1001      10.333   7.422  11.153  1.00  0.00    -0.326 N 
ATOM      5  HN  DXK A1001      11.115   7.050  11.692  1.00  0.00     0.169 HD
HETATM    6  C   DXK A1001       9.308   6.611  10.837  1.00  0.00     0.138 A 
HETATM    7  N   DXK A1001       9.064   5.320  11.111  1.00  0.00    -0.281 N 
HETATM    8  C   DXK A1001       9.936   4.423  11.877  1.00  0.00     0.179 C 
HETATM    9  N   DXK A1001       7.991   4.968  10.619  1.00  0.00    -0.307 N 
ATOM     10  HN  DXK A1001       7.565   4.045  10.699  1.00  0.00     0.186 HD
HETATM   11  C   DXK A1001       7.487   6.023   9.959  1.00  0.00     0.126 A 
HETATM   12  C   DXK A1001       8.298   7.079  10.110  1.00  0.00     0.065 A 
HETATM   13  C   DXK A1001       8.310   8.381   9.713  1.00  0.00     0.095 A 
ENDROOT
BRANCH   1  14
HETATM   14  C   DXK A1001      11.433   9.518  11.132  1.00  0.00     0.023 A 
HETATM   15  C   DXK A1001      12.491   9.009  11.887  1.00  0.00     0.018 A 
HETATM   16  C   DXK A1001      13.570   9.819  12.239  1.00  0.00     0.018 A 
HETATM   17  C   DXK A1001      13.599  11.147  11.837  1.00  0.00     0.087 A 
HETATM   18  N   DXK A1001      12.546  11.671  11.083  1.00  0.00    -0.374 N 
HETATM   19  C   DXK A1001      11.462  10.853  10.730  1.00  0.00     0.102 A 
ATOM     20  HN  DXK A1001      12.564  12.647  10.790  1.00  0.00     0.164 HD
ENDBRANCH   1  14
BRANCH  13  21
HETATM   21  N   DXK A1001       7.295   8.892   8.975  1.00  0.00    -0.288 NA
HETATM   22  H   DXK A1001       7.128   9.860   9.251  1.00  0.00     0.125 HD
HETATM   23  H   DXK A1001       7.543   8.859   7.986  1.00  0.00     0.125 HD
ENDBRANCH  13  21
TORSDOF 2
ENDMDL
MODEL 29
REMARK VINA RESULT:    -2.347      2.420      5.425
REMARK INTER + INTRA:          -2.796
REMARK INTER:                  -2.559
REMARK INTRA:                  -0.237
REMARK UNBOUND:                -0.243
REMARK  2 active torsions:
REMARK  status: ('A' for Active; 'I' for Inactive)
REMARK    1  A    between atoms: C_7  and  C_8 
REMARK    2  A    between atoms: C_20  and  N_21 
ROOT
HETATM    1  C   DXK A1001       8.837   7.709  10.426  1.00  0.00     0.119 A 
HETATM    2  N   DXK A1001       9.856   8.579  10.402  1.00  0.00    -0.332 N 
ATOM      3  HN  DXK A1001      10.788   8.281  10.689  1.00  0.00     0.168 HD
HETATM    4  N   DXK A1001       7.621   8.120  10.051  1.00  0.00    -0.326 N 
ATOM      5  HN  DXK A1001       6.847   7.456  10.057  1.00  0.00     0.169 HD
HETATM    6  C   DXK A1001       7.395   9.389   9.665  1.00  0.00     0.138 A 
HETATM    7  N   DXK A1001       6.281  10.024   9.269  1.00  0.00    -0.281 N 
HETATM    8  C   DXK A1001       4.947   9.429   9.151  1.00  0.00     0.179 C 
HETATM    9  N   DXK A1001       6.527  11.201   9.001  1.00  0.00    -0.307 N 
ATOM     10  HN  DXK A1001       5.852  11.904   8.698  1.00  0.00     0.186 HD
HETATM   11  C   DXK A1001       7.845  11.388   9.181  1.00  0.00     0.126 A 
HETATM   12  C   DXK A1001       8.403  10.255   9.627  1.00  0.00     0.065 A 
HETATM   13  C   DXK A1001       9.647   9.846   9.998  1.00  0.00     0.095 A 
ENDROOT
BRANCH   1  14
HETATM   14  C   DXK A1001       9.030   6.384  10.829  1.00  0.00     0.023 A 
HETATM   15  C   DXK A1001       8.557   5.326  10.049  1.00  0.00     0.018 A 
HETATM   16  C   DXK A1001       8.753   4.004  10.450  1.00  0.00     0.018 A 
HETATM   17  C   DXK A1001       9.423   3.730  11.633  1.00  0.00     0.087 A 
HETATM   18  N   DXK A1001       9.899   4.779  12.424  1.00  0.00    -0.374 N 
HETATM   19  C   DXK A1001       9.702   6.108  12.018  1.00  0.00     0.102 A 
ATOM     20  HN  DXK A1001      10.388   4.580  13.296  1.00  0.00     0.164 HD
ENDBRANCH   1  14
BRANCH  13  21
HETATM   21  N   DXK A1001      10.697  10.703   9.974  1.00  0.00    -0.288 NA
HETATM   22  H   DXK A1001      11.521  10.221   9.613  1.00  0.00     0.125 HD
HETATM   23  H   DXK A1001      10.475  11.496   9.372  1.00  0.00     0.125 HD
ENDBRANCH  13  21
TORSDOF 2
ENDMDL
MODEL 30
REMARK VINA RESULT:    -2.072      1.960      5.389
REMARK INTER + INTRA:          -2.497
REMARK INTER:                  -2.251
REMARK INTRA:                  -0.246
REMARK UNBOUND:                -0.243
REMARK  2 active torsions:
REMARK  status: ('A' for Active; 'I' for Inactive)
REMARK    1  A    between atoms: C_7  and  C_8 
REMARK    2  A    between atoms: C_20  and  N_21 
ROOT
HETATM    1  C   DXK A1001       9.682   7.788  11.178  1.00  0.00     0.119 A 
HETATM    2  N   DXK A1001       8.473   7.233  11.344  1.00  0.00    -0.332 N 
ATOM      3  HN  DXK A1001       8.386   6.326  11.802  1.00  0.00     0.168 HD
HETATM    4  N   DXK A1001       9.775   8.975  10.570  1.00  0.00    -0.326 N 
ATOM      5  HN  DXK A1001      10.693   9.404  10.454  1.00  0.00     0.169 HD
HETATM    6  C   DXK A1001       8.687   9.617  10.109  1.00  0.00     0.138 A 
HETATM    7  N   DXK A1001       8.537  10.785   9.466  1.00  0.00    -0.281 N 
HETATM    8  C   DXK A1001       9.614  11.707   9.093  1.00  0.00     0.179 C 
HETATM    9  N   DXK A1001       7.347  10.998   9.228  1.00  0.00    -0.307 N 
ATOM     10  HN  DXK A1001       6.966  11.803   8.731  1.00  0.00     0.186 HD
HETATM   11  C   DXK A1001       6.645   9.976   9.743  1.00  0.00     0.126 A 
HETATM   12  C   DXK A1001       7.483   9.080  10.281  1.00  0.00     0.065 A 
HETATM   13  C   DXK A1001       7.374   7.876  10.906  1.00  0.00     0.095 A 
ENDROOT
BRANCH   1  14
HETATM   14  C   DXK A1001      10.838   7.147  11.635  1.00  0.00     0.023 A 
HETATM   15  C   DXK A1001      12.079   7.786  11.574  1.00  0.00     0.018 A 
HETATM   16  C   DXK A1001      13.231   7.148  12.034  1.00  0.00     0.018 A 
HETATM   17  C   DXK A1001      13.151   5.867  12.560  1.00  0.00     0.087 A 
HETATM   18  N   DXK A1001      11.916   5.215  12.624  1.00  0.00    -0.374 N 
HETATM   19  C   DXK A1001      10.759   5.859  12.162  1.00  0.00     0.102 A 
ATOM     20  HN  DXK A1001      11.857   4.272  13.007  1.00  0.00     0.164 HD
ENDBRANCH   1  14
BRANCH  13  21
HETATM   21  N   DXK A1001       6.163   7.297  11.095  1.00  0.00    -0.288 NA
HETATM   22  H   DXK A1001       5.470   7.760  10.507  1.00  0.00     0.125 HD
HETATM   23  H   DXK A1001       6.216   6.309  10.847  1.00  0.00     0.125 HD
ENDBRANCH  13  21
TORSDOF 2
ENDMDL
MODEL 31
REMARK VINA RESULT:    -1.958      2.206      4.109
REMARK INTER + INTRA:          -2.373
REMARK INTER:                  -2.126
REMARK INTRA:                  -0.246
REMARK UNBOUND:                -0.243
REMARK  2 active torsions:
REMARK  status: ('A' for Active; 'I' for Inactive)
REMARK    1  A    between atoms: C_7  and  C_8 
REMARK    2  A    between atoms: C_20  and  N_21 
ROOT
HETATM    1  C   DXK A1001       8.920   8.147  10.781  1.00  0.00     0.119 A 
HETATM    2  N   DXK A1001       9.984   8.228  11.592  1.00  0.00    -0.332 N 
ATOM      3  HN  DXK A1001      10.367   9.139  11.842  1.00  0.00     0.168 HD
HETATM    4  N   DXK A1001       8.436   6.942  10.460  1.00  0.00    -0.326 N 
ATOM      5  HN  DXK A1001       7.619   6.880   9.853  1.00  0.00     0.169 HD
HETATM    6  C   DXK A1001       9.002   5.812  10.919  1.00  0.00     0.138 A 
HETATM    7  N   DXK A1001       8.710   4.517  10.724  1.00  0.00    -0.281 N 
HETATM    8  C   DXK A1001       7.613   3.995   9.904  1.00  0.00     0.179 C 
HETATM    9  N   DXK A1001       9.495   3.798  11.345  1.00  0.00    -0.307 N 
ATOM     10  HN  DXK A1001       9.505   2.778  11.349  1.00  0.00     0.186 HD
HETATM   11  C   DXK A1001      10.335   4.605  12.014  1.00  0.00     0.126 A 
HETATM   12  C   DXK A1001      10.050   5.883  11.733  1.00  0.00     0.065 A 
HETATM   13  C   DXK A1001      10.546   7.104  12.074  1.00  0.00     0.095 A 
ENDROOT
BRANCH   1  14
HETATM   14  C   DXK A1001       8.309   9.299  10.277  1.00  0.00     0.023 A 
HETATM   15  C   DXK A1001       7.152   9.210   9.498  1.00  0.00     0.018 A 
HETATM   16  C   DXK A1001       6.541  10.360   8.998  1.00  0.00     0.018 A 
HETATM   17  C   DXK A1001       7.081  11.608   9.274  1.00  0.00     0.087 A 
HETATM   18  N   DXK A1001       8.239  11.711  10.049  1.00  0.00    -0.374 N 
HETATM   19  C   DXK A1001       8.851  10.553  10.552  1.00  0.00     0.102 A 
ATOM     20  HN  DXK A1001       8.639  12.627  10.249  1.00  0.00     0.164 HD
ENDBRANCH   1  14
BRANCH  13  21
HETATM   21  N   DXK A1001      11.616   7.214  12.899  1.00  0.00    -0.288 NA
HETATM   22  H   DXK A1001      11.789   8.199  13.101  1.00  0.00     0.125 HD
HETATM   23  H   DXK A1001      11.428   6.716  13.769  1.00  0.00     0.125 HD
ENDBRANCH  13  21
TORSDOF 2
ENDMDL
MODEL 32
REMARK VINA RESULT:    -1.672      1.911      4.911
REMARK INTER + INTRA:          -2.062
REMARK INTER:                  -1.817
REMARK INTRA:                  -0.245
REMARK UNBOUND:                -0.243
REMARK  2 active torsions:
REMARK  status: ('A' for Active; 'I' for Inactive)
REMARK    1  A    between atoms: C_7  and  C_8 
REMARK    2  A    between atoms: C_20  and  N_21 
ROOT
HETATM    1  C   DXK A1001      10.505   7.856  11.543  1.00  0.00     0.119 A 
HETATM    2  N   DXK A1001      11.524   8.685  11.809  1.00  0.00    -0.332 N 
ATOM      3  HN  DXK A1001      12.395   8.317  12.192  1.00  0.00     0.168 HD
HETATM    4  N   DXK A1001       9.369   8.359  11.048  1.00  0.00    -0.326 N 
ATOM      5  HN  DXK A1001       8.597   7.727  10.834  1.00  0.00     0.169 HD
HETATM    6  C   DXK A1001       9.222   9.677  10.824  1.00  0.00     0.138 A 
HETATM    7  N   DXK A1001       8.193  10.400  10.357  1.00  0.00    -0.281 N 
HETATM    8  C   DXK A1001       6.888   9.874   9.944  1.00  0.00     0.179 C 
HETATM    9  N   DXK A1001       8.490  11.594  10.308  1.00  0.00    -0.307 N 
ATOM     10  HN  DXK A1001       7.881  12.356  10.010  1.00  0.00     0.186 HD
HETATM   11  C   DXK A1001       9.764  11.708  10.718  1.00  0.00     0.126 A 
HETATM   12  C   DXK A1001      10.232  10.504  11.073  1.00  0.00     0.065 A 
HETATM   13  C   DXK A1001      11.396  10.003  11.570  1.00  0.00     0.095 A 
ENDROOT
BRANCH   1  14
HETATM   14  C   DXK A1001      10.616   6.481  11.771  1.00  0.00     0.023 A 
HETATM   15  C   DXK A1001       9.485   5.662  11.757  1.00  0.00     0.018 A 
HETATM   16  C   DXK A1001       9.597   4.289  11.980  1.00  0.00     0.018 A 
HETATM   17  C   DXK A1001      10.841   3.725  12.218  1.00  0.00     0.087 A 
HETATM   18  N   DXK A1001      11.982   4.533  12.238  1.00  0.00    -0.374 N 
HETATM   19  C   DXK A1001      11.866   5.913  12.012  1.00  0.00     0.102 A 
ATOM     20  HN  DXK A1001      12.897   4.120  12.417  1.00  0.00     0.164 HD
ENDBRANCH   1  14
BRANCH  13  21
HETATM   21  N   DXK A1001      12.445  10.818  11.838  1.00  0.00    -0.288 NA
HETATM   22  H   DXK A1001      12.461  11.585  11.165  1.00  0.00     0.125 HD
HETATM   23  H   DXK A1001      12.350  11.195  12.781  1.00  0.00     0.125 HD
ENDBRANCH  13  21
TORSDOF 2
ENDMDL
MODEL 33
REMARK VINA RESULT:    -1.594      2.007      5.467
REMARK INTER + INTRA:          -1.977
REMARK INTER:                  -1.732
REMARK INTRA:                  -0.245
REMARK UNBOUND:                -0.243
REMARK  2 active torsions:
REMARK  status: ('A' for Active; 'I' for Inactive)
REMARK    1  A    between atoms: C_7  and  C_8 
REMARK    2  A    between atoms: C_20  and  N_21 
ROOT
HETATM    1  C   DXK A1001       8.801   7.731  10.905  1.00  0.00     0.119 A 
HETATM    2  N   DXK A1001       7.592   7.169  11.040  1.00  0.00    -0.332 N 
ATOM      3  HN  DXK A1001       7.503   6.248  11.469  1.00  0.00     0.168 HD
HETATM    4  N   DXK A1001       8.899   8.936  10.334  1.00  0.00    -0.326 N 
ATOM      5  HN  DXK A1001       9.818   9.370  10.242  1.00  0.00     0.169 HD
HETATM    6  C   DXK A1001       7.815   9.590   9.880  1.00  0.00     0.138 A 
HETATM    7  N   DXK A1001       7.670  10.776   9.271  1.00  0.00    -0.281 N 
HETATM    8  C   DXK A1001       8.749  11.712   8.939  1.00  0.00     0.179 C 
HETATM    9  N   DXK A1001       6.483  10.994   9.025  1.00  0.00    -0.307 N 
ATOM     10  HN  DXK A1001       6.105  11.813   8.548  1.00  0.00     0.186 HD
HETATM   11  C   DXK A1001       5.777   9.954   9.500  1.00  0.00     0.126 A 
HETATM   12  C   DXK A1001       6.611   9.045  10.021  1.00  0.00     0.065 A 
HETATM   13  C   DXK A1001       6.497   7.822  10.608  1.00  0.00     0.095 A 
ENDROOT
BRANCH   1  14
HETATM   14  C   DXK A1001       9.954   7.079  11.357  1.00  0.00     0.023 A 
HETATM   15  C   DXK A1001       9.896   5.756  11.801  1.00  0.00     0.018 A 
HETATM   16  C   DXK A1001      11.046   5.105  12.248  1.00  0.00     0.018 A 
HETATM   17  C   DXK A1001      12.262   5.772  12.253  1.00  0.00     0.087 A 
HETATM   18  N   DXK A1001      12.334   7.097  11.815  1.00  0.00    -0.374 N 
HETATM   19  C   DXK A1001      11.176   7.749  11.364  1.00  0.00     0.102 A 
ATOM     20  HN  DXK A1001      13.226   7.590  11.822  1.00  0.00     0.164 HD
ENDBRANCH   1  14
BRANCH  13  21
HETATM   21  N   DXK A1001       5.286   7.235  10.765  1.00  0.00    -0.288 NA
HETATM   22  H   DXK A1001       4.744   7.340   9.907  1.00  0.00     0.125 HD
HETATM   23  H   DXK A1001       5.412   6.244  10.969  1.00  0.00     0.125 HD
ENDBRANCH  13  21
TORSDOF 2
ENDMDL
MODEL 34
REMARK VINA RESULT:    -1.150      2.017      5.697
REMARK INTER + INTRA:          -1.494
REMARK INTER:                  -1.262
REMARK INTRA:                  -0.232
REMARK UNBOUND:                -0.243
REMARK  2 active torsions:
REMARK  status: ('A' for Active; 'I' for Inactive)
REMARK    1  A    between atoms: C_7  and  C_8 
REMARK    2  A    between atoms: C_20  and  N_21 
ROOT
HETATM    1  C   DXK A1001       9.356   7.680  10.812  1.00  0.00     0.119 A 
HETATM    2  N   DXK A1001       9.405   6.348  10.672  1.00  0.00    -0.332 N 
ATOM      3  HN  DXK A1001      10.236   5.834  10.963  1.00  0.00     0.168 HD
HETATM    4  N   DXK A1001       8.260   8.336  10.418  1.00  0.00    -0.326 N 
ATOM      5  HN  DXK A1001       8.217   9.349  10.535  1.00  0.00     0.169 HD
HETATM    6  C   DXK A1001       7.213   7.694   9.872  1.00  0.00     0.138 A 
HETATM    7  N   DXK A1001       6.037   8.131   9.397  1.00  0.00    -0.281 N 
HETATM    8  C   DXK A1001       5.585   9.525   9.368  1.00  0.00     0.179 C 
HETATM    9  N   DXK A1001       5.359   7.189   8.984  1.00  0.00    -0.307 N 
ATOM     10  HN  DXK A1001       4.436   7.252   8.554  1.00  0.00     0.186 HD
HETATM   11  C   DXK A1001       6.060   6.064   9.202  1.00  0.00     0.126 A 
HETATM   12  C   DXK A1001       7.248   6.371   9.740  1.00  0.00     0.065 A 
HETATM   13  C   DXK A1001       8.355   5.690  10.146  1.00  0.00     0.095 A 
ENDROOT
BRANCH   1  14
HETATM   14  C   DXK A1001      10.428   8.385  11.368  1.00  0.00     0.023 A 
HETATM   15  C   DXK A1001      11.244   9.189  10.568  1.00  0.00     0.018 A 
HETATM   16  C   DXK A1001      12.311   9.896  11.123  1.00  0.00     0.018 A 
HETATM   17  C   DXK A1001      12.570   9.805  12.482  1.00  0.00     0.087 A 
HETATM   18  N   DXK A1001      11.764   9.001  13.294  1.00  0.00    -0.374 N 
HETATM   19  C   DXK A1001      10.691   8.293  12.733  1.00  0.00     0.102 A 
ATOM     20  HN  DXK A1001      11.956   8.930  14.292  1.00  0.00     0.164 HD
ENDBRANCH   1  14
BRANCH  13  21
HETATM   21  N   DXK A1001       8.426   4.342  10.023  1.00  0.00    -0.288 NA
HETATM   22  H   DXK A1001       9.320   4.015  10.389  1.00  0.00     0.125 HD
HETATM   23  H   DXK A1001       7.665   3.913  10.549  1.00  0.00     0.125 HD
ENDBRANCH  13  21
TORSDOF 2
ENDMDL
MODEL 35
REMARK VINA RESULT:    -1.006      2.796      5.310
REMARK INTER + INTRA:          -1.337
REMARK INTER:                  -1.106
REMARK INTRA:                  -0.231
REMARK UNBOUND:                -0.243
REMARK  2 active torsions:
REMARK  status: ('A' for Active; 'I' for Inactive)
REMARK    1  A    between atoms: C_7  and  C_8 
REMARK    2  A    between atoms: C_20  and  N_21 
ROOT
HETATM    1  C   DXK A1001       8.340   7.095  10.954  1.00  0.00     0.119 A 
HETATM    2  N   DXK A1001       7.001   7.112  10.915  1.00  0.00    -0.332 N 
ATOM      3  HN  DXK A1001       6.469   6.330  11.298  1.00  0.00     0.168 HD
HETATM    4  N   DXK A1001       9.020   8.126  10.442  1.00  0.00    -0.326 N 
ATOM      5  HN  DXK A1001      10.039   8.119  10.481  1.00  0.00     0.169 HD
HETATM    6  C   DXK A1001       8.391   9.172   9.876  1.00  0.00     0.138 A 
HETATM    7  N   DXK A1001       8.850  10.290   9.294  1.00  0.00    -0.281 N 
HETATM    8  C   DXK A1001      10.259  10.661   9.133  1.00  0.00     0.179 C 
HETATM    9  N   DXK A1001       7.915  10.992   8.907  1.00  0.00    -0.307 N 
ATOM     10  HN  DXK A1001       7.991  11.882   8.415  1.00  0.00     0.186 HD
HETATM   11  C   DXK A1001       6.775  10.370   9.254  1.00  0.00     0.126 A 
HETATM   12  C   DXK A1001       7.062   9.202   9.845  1.00  0.00     0.065 A 
HETATM   13  C   DXK A1001       6.359   8.162  10.371  1.00  0.00     0.095 A 
ENDROOT
BRANCH   1  14
HETATM   14  C   DXK A1001       9.031   6.021  11.525  1.00  0.00     0.023 A 
HETATM   15  C   DXK A1001       9.236   4.841  10.806  1.00  0.00     0.018 A 
HETATM   16  C   DXK A1001       9.928   3.772  11.375  1.00  0.00     0.018 A 
HETATM   17  C   DXK A1001      10.422   3.875  12.667  1.00  0.00     0.087 A 
HETATM   18  N   DXK A1001      10.221   5.049  13.399  1.00  0.00    -0.374 N 
HETATM   19  C   DXK A1001       9.526   6.123  12.824  1.00  0.00     0.102 A 
ATOM     20  HN  DXK A1001      10.580   5.124  14.351  1.00  0.00     0.164 HD
ENDBRANCH   1  14
BRANCH  13  21
HETATM   21  N   DXK A1001       5.004   8.159  10.353  1.00  0.00    -0.288 NA
HETATM   22  H   DXK A1001       4.653   8.750  11.107  1.00  0.00     0.125 HD
HETATM   23  H   DXK A1001       4.675   8.518   9.457  1.00  0.00     0.125 HD
ENDBRANCH  13  21
TORSDOF 2
ENDMDL
