MODEL 1
REMARK VINA RESULT:    -6.694      0.000      0.000
REMARK INTER + INTRA:          -9.482
REMARK INTER:                  -8.064
REMARK INTRA:                  -1.419
REMARK UNBOUND:                -1.419
REMARK  4 active torsions:
REMARK  status: ('A' for Active; 'I' for Inactive)
REMARK    1  A    between atoms: C_5  and  C_8 
REMARK    2  A    between atoms: C_6  and  N_23 
REMARK       I    between atoms: C_8  and  N_22 
REMARK    3  A    between atoms: C_17  and  N_23 
REMARK    4  A    between atoms: C_18  and  O_25 
ROOT
ATOM      1  C   9T6 A1201     -18.633  -2.039 -14.827  1.00  0.00     0.034 A 
ATOM      2  C   9T6 A1201     -15.439  -0.419 -12.818  1.00  0.00     0.108 A 
ATOM      3  C   9T6 A1201     -19.264  -2.481 -13.740  1.00  0.00     0.090 A 
ATOM      4  C   9T6 A1201     -17.440  -1.403 -14.414  1.00  0.00     0.032 A 
ATOM      5  C   9T6 A1201     -15.307  -0.222 -14.173  1.00  0.00     0.069 A 
ATOM      6  C   9T6 A1201     -16.340  -0.740 -15.021  1.00  0.00     0.040 A 
ATOM      7  C   9T6 A1201     -17.482  -1.549 -13.031  1.00  0.00     0.117 A 
ATOM      8  N   9T6 A1201     -16.483  -1.035 -12.288  1.00  0.00    -0.351 N 
ATOM      9  HN  9T6 A1201     -16.533  -1.124 -11.273  1.00  0.00     0.166 HD
ATOM     10  N   9T6 A1201     -18.561  -2.178 -12.672  1.00  0.00    -0.352 N 
ATOM     11  H   9T6 A1201     -18.813  -2.394 -11.744  1.00  0.00     0.166 HD
ENDROOT
BRANCH   6  12
ATOM     12  N   9T6 A1201     -16.255  -0.541 -16.370  1.00  0.00    -0.286 NA
ATOM     13  H   9T6 A1201     -16.608  -1.439 -16.699  1.00  0.00     0.128 HD
BRANCH  12  14
ATOM     14  C   9T6 A1201     -17.090   0.360 -17.163  1.00  0.00     0.068 C 
ATOM     15  C   9T6 A1201     -17.607  -0.379 -18.417  1.00  0.00     0.007 C 
ATOM     16  C   9T6 A1201     -16.428  -0.756 -19.307  1.00  0.00     0.011 C 
ATOM     17  C   9T6 A1201     -18.578   0.523 -19.184  1.00  0.00     0.044 C 
ATOM     18  C   9T6 A1201     -15.692   0.503 -19.785  1.00  0.00    -0.011 C 
ATOM     19  C   9T6 A1201     -15.137   1.233 -18.558  1.00  0.00     0.011 C 
ATOM     20  C   9T6 A1201     -16.657   1.459 -20.493  1.00  0.00     0.042 C 
ATOM     21  C   9T6 A1201     -16.311   1.589 -17.612  1.00  0.00     0.007 C 
ATOM     22  C   9T6 A1201     -17.305   2.514 -18.346  1.00  0.00     0.044 C 
ATOM     23  C   9T6 A1201     -17.845   1.806 -19.601  1.00  0.00     0.059 C 
BRANCH  23  24
ATOM     24  O   9T6 A1201     -18.721   2.660 -20.325  1.00  0.00    -0.390 OA
ATOM     25  H   9T6 A1201     -18.515   2.608 -21.271  1.00  0.00     0.210 HD
ENDBRANCH  23  24
ENDBRANCH  12  14
ENDBRANCH   6  12
BRANCH   5  26
ATOM     26  C   9T6 A1201     -14.122   0.509 -14.674  1.00  0.00     0.252 C 
ATOM     27  O   9T6 A1201     -13.607   0.175 -15.725  1.00  0.00    -0.268 OA
ATOM     28  N   9T6 A1201     -13.558   1.565 -14.026  1.00  0.00    -0.366 N 
ATOM     29  H   9T6 A1201     -12.769   2.012 -14.408  1.00  0.00     0.159 HD
ATOM     30  H   9T6 A1201     -13.939   1.880 -13.175  1.00  0.00     0.159 HD
ENDBRANCH   5  26
TORSDOF 4
ENDMDL
MODEL 2
REMARK VINA RESULT:    -5.911      0.879      1.183
REMARK INTER + INTRA:          -8.539
REMARK INTER:                  -7.162
REMARK INTRA:                  -1.378
REMARK UNBOUND:                -1.419
REMARK  4 active torsions:
REMARK  status: ('A' for Active; 'I' for Inactive)
REMARK    1  A    between atoms: C_5  and  C_8 
REMARK    2  A    between atoms: C_6  and  N_23 
REMARK       I    between atoms: C_8  and  N_22 
REMARK    3  A    between atoms: C_17  and  N_23 
REMARK    4  A    between atoms: C_18  and  O_25 
ROOT
ATOM      1  C   9T6 A1201     -19.633  -2.374 -15.768  1.00  0.00     0.034 A 
ATOM      2  C   9T6 A1201     -16.959  -1.425 -12.800  1.00  0.00     0.108 A 
ATOM      3  C   9T6 A1201     -20.525  -2.951 -14.964  1.00  0.00     0.090 A 
ATOM      4  C   9T6 A1201     -18.551  -1.928 -14.974  1.00  0.00     0.032 A 
ATOM      5  C   9T6 A1201     -16.495  -0.997 -14.021  1.00  0.00     0.069 A 
ATOM      6  C   9T6 A1201     -17.311  -1.262 -15.169  1.00  0.00     0.040 A 
ATOM      7  C   9T6 A1201     -18.933  -2.319 -13.695  1.00  0.00     0.117 A 
ATOM      8  N   9T6 A1201     -18.124  -2.035 -12.656  1.00  0.00    -0.351 N 
ATOM      9  HN  9T6 A1201     -18.422  -2.302 -11.718  1.00  0.00     0.166 HD
ATOM     10  N   9T6 A1201     -20.091  -2.908 -13.725  1.00  0.00    -0.352 N 
ATOM     11  H   9T6 A1201     -20.568  -3.266 -12.941  1.00  0.00     0.166 HD
ENDROOT
BRANCH   6  12
ATOM     12  N   9T6 A1201     -16.894  -0.830 -16.396  1.00  0.00    -0.286 NA
ATOM     13  H   9T6 A1201     -17.072  -1.671 -16.945  1.00  0.00     0.128 HD
BRANCH  12  14
ATOM     14  C   9T6 A1201     -17.566   0.161 -17.236  1.00  0.00     0.068 C 
ATOM     15  C   9T6 A1201     -17.906  -0.463 -18.606  1.00  0.00     0.007 C 
ATOM     16  C   9T6 A1201     -16.617  -0.828 -19.333  1.00  0.00     0.011 C 
ATOM     17  C   9T6 A1201     -18.716   0.534 -19.441  1.00  0.00     0.044 C 
ATOM     18  C   9T6 A1201     -15.774   0.427 -19.596  1.00  0.00    -0.011 C 
ATOM     19  C   9T6 A1201     -15.392   1.044 -18.245  1.00  0.00     0.011 C 
ATOM     20  C   9T6 A1201     -16.586   1.474 -20.366  1.00  0.00     0.042 C 
ATOM     21  C   9T6 A1201     -16.687   1.383 -17.465  1.00  0.00     0.007 C 
ATOM     22  C   9T6 A1201     -17.523   2.401 -18.268  1.00  0.00     0.044 C 
ATOM     23  C   9T6 A1201     -17.885   1.809 -19.642  1.00  0.00     0.059 C 
BRANCH  23  24
ATOM     24  O   9T6 A1201     -18.610   2.750 -20.423  1.00  0.00    -0.390 OA
ATOM     25  H   9T6 A1201     -18.257   3.639 -20.268  1.00  0.00     0.210 HD
ENDBRANCH  23  24
ENDBRANCH  12  14
ENDBRANCH   6  12
BRANCH   5  26
ATOM     26  C   9T6 A1201     -15.196  -0.291 -14.083  1.00  0.00     0.252 C 
ATOM     27  O   9T6 A1201     -14.592  -0.229 -15.137  1.00  0.00    -0.268 OA
ATOM     28  N   9T6 A1201     -14.617   0.317 -13.011  1.00  0.00    -0.366 N 
ATOM     29  H   9T6 A1201     -13.750   0.771 -13.112  1.00  0.00     0.159 HD
ATOM     30  H   9T6 A1201     -15.066   0.302 -12.135  1.00  0.00     0.159 HD
ENDBRANCH   5  26
TORSDOF 4
ENDMDL
MODEL 3
REMARK VINA RESULT:    -5.801      1.901      3.380
REMARK INTER + INTRA:          -8.406
REMARK INTER:                  -7.528
REMARK INTRA:                  -0.879
REMARK UNBOUND:                -1.419
REMARK  4 active torsions:
REMARK  status: ('A' for Active; 'I' for Inactive)
REMARK    1  A    between atoms: C_5  and  C_8 
REMARK    2  A    between atoms: C_6  and  N_23 
REMARK       I    between atoms: C_8  and  N_22 
REMARK    3  A    between atoms: C_17  and  N_23 
REMARK    4  A    between atoms: C_18  and  O_25 
ROOT
ATOM      1  C   9T6 A1201     -15.738  -0.626 -14.051  1.00  0.00     0.034 A 
ATOM      2  C   9T6 A1201     -19.438  -2.388 -13.789  1.00  0.00     0.108 A 
ATOM      3  C   9T6 A1201     -15.492  -0.637 -12.742  1.00  0.00     0.090 A 
ATOM      4  C   9T6 A1201     -17.010  -1.205 -14.263  1.00  0.00     0.032 A 
ATOM      5  C   9T6 A1201     -19.121  -2.124 -15.101  1.00  0.00     0.069 A 
ATOM      6  C   9T6 A1201     -17.860  -1.497 -15.364  1.00  0.00     0.040 A 
ATOM      7  C   9T6 A1201     -17.422  -1.515 -12.971  1.00  0.00     0.117 A 
ATOM      8  N   9T6 A1201     -18.617  -2.110 -12.790  1.00  0.00    -0.351 N 
ATOM      9  HN  9T6 A1201     -18.901  -2.357 -11.842  1.00  0.00     0.166 HD
ATOM     10  N   9T6 A1201     -16.511  -1.175 -12.109  1.00  0.00    -0.352 N 
ATOM     11  H   9T6 A1201     -16.574  -1.300 -11.134  1.00  0.00     0.166 HD
ENDROOT
BRANCH   6  12
ATOM     12  N   9T6 A1201     -17.501  -1.242 -16.658  1.00  0.00    -0.286 NA
ATOM     13  H   9T6 A1201     -17.917  -2.053 -17.115  1.00  0.00     0.128 HD
BRANCH  12  14
ATOM     14  C   9T6 A1201     -18.035  -0.178 -17.507  1.00  0.00     0.068 C 
ATOM     15  C   9T6 A1201     -17.981  -0.617 -18.986  1.00  0.00     0.007 C 
ATOM     16  C   9T6 A1201     -16.528  -0.806 -19.408  1.00  0.00     0.011 C 
ATOM     17  C   9T6 A1201     -18.650   0.445 -19.865  1.00  0.00     0.044 C 
ATOM     18  C   9T6 A1201     -15.759   0.518 -19.292  1.00  0.00    -0.011 C 
ATOM     19  C   9T6 A1201     -15.768   0.954 -17.823  1.00  0.00     0.011 C 
ATOM     20  C   9T6 A1201     -16.450   1.619 -20.103  1.00  0.00     0.042 C 
ATOM     21  C   9T6 A1201     -17.236   1.109 -17.355  1.00  0.00     0.007 C 
ATOM     22  C   9T6 A1201     -17.940   2.186 -18.207  1.00  0.00     0.044 C 
ATOM     23  C   9T6 A1201     -17.909   1.778 -19.690  1.00  0.00     0.059 C 
BRANCH  23  24
ATOM     24  O   9T6 A1201     -18.504   2.781 -20.503  1.00  0.00    -0.390 OA
ATOM     25  H   9T6 A1201     -19.064   3.352 -19.955  1.00  0.00     0.210 HD
ENDBRANCH  23  24
ENDBRANCH  12  14
ENDBRANCH   6  12
BRANCH   5  26
ATOM     26  C   9T6 A1201     -20.087  -2.502 -16.157  1.00  0.00     0.252 C 
ATOM     27  O   9T6 A1201     -20.647  -1.634 -16.801  1.00  0.00    -0.268 OA
ATOM     28  N   9T6 A1201     -20.395  -3.790 -16.471  1.00  0.00    -0.366 N 
ATOM     29  H   9T6 A1201     -21.046  -3.981 -17.183  1.00  0.00     0.159 HD
ATOM     30  H   9T6 A1201     -19.966  -4.531 -15.985  1.00  0.00     0.159 HD
ENDBRANCH   5  26
TORSDOF 4
ENDMDL
MODEL 4
REMARK VINA RESULT:    -5.740      1.372      3.156
REMARK INTER + INTRA:          -8.333
REMARK INTER:                  -7.575
REMARK INTRA:                  -0.758
REMARK UNBOUND:                -1.419
REMARK  4 active torsions:
REMARK  status: ('A' for Active; 'I' for Inactive)
REMARK    1  A    between atoms: C_5  and  C_8 
REMARK    2  A    between atoms: C_6  and  N_23 
REMARK       I    between atoms: C_8  and  N_22 
REMARK    3  A    between atoms: C_17  and  N_23 
REMARK    4  A    between atoms: C_18  and  O_25 
ROOT
ATOM      1  C   9T6 A1201     -14.183   0.465 -14.655  1.00  0.00     0.034 A 
ATOM      2  C   9T6 A1201     -17.235  -1.340 -12.584  1.00  0.00     0.108 A 
ATOM      3  C   9T6 A1201     -13.472   0.799 -13.580  1.00  0.00     0.090 A 
ATOM      4  C   9T6 A1201     -15.348  -0.207 -14.219  1.00  0.00     0.032 A 
ATOM      5  C   9T6 A1201     -17.467  -1.404 -13.938  1.00  0.00     0.069 A 
ATOM      6  C   9T6 A1201     -16.495  -0.807 -14.805  1.00  0.00     0.040 A 
ATOM      7  C   9T6 A1201     -15.205  -0.196 -12.835  1.00  0.00     0.117 A 
ATOM      8  N   9T6 A1201     -16.151  -0.779 -12.075  1.00  0.00    -0.351 N 
ATOM      9  HN  9T6 A1201     -16.026  -0.789 -11.063  1.00  0.00     0.166 HD
ATOM     10  N   9T6 A1201     -14.097   0.394 -12.497  1.00  0.00    -0.352 N 
ATOM     11  H   9T6 A1201     -13.777   0.518 -11.574  1.00  0.00     0.166 HD
ENDROOT
BRANCH   6  12
ATOM     12  N   9T6 A1201     -16.680  -0.874 -16.157  1.00  0.00    -0.286 NA
ATOM     13  H   9T6 A1201     -17.341  -1.649 -16.204  1.00  0.00     0.128 HD
BRANCH  12  14
ATOM     14  C   9T6 A1201     -17.389   0.106 -16.980  1.00  0.00     0.068 C 
ATOM     15  C   9T6 A1201     -17.772  -0.531 -18.333  1.00  0.00     0.007 C 
ATOM     16  C   9T6 A1201     -16.506  -0.891 -19.103  1.00  0.00     0.011 C 
ATOM     17  C   9T6 A1201     -18.619   0.453 -19.146  1.00  0.00     0.044 C 
ATOM     18  C   9T6 A1201     -15.683   0.370 -19.403  1.00  0.00    -0.011 C 
ATOM     19  C   9T6 A1201     -15.260   0.999 -18.071  1.00  0.00     0.011 C 
ATOM     20  C   9T6 A1201     -16.530   1.404 -20.152  1.00  0.00     0.042 C 
ATOM     21  C   9T6 A1201     -16.529   1.333 -17.248  1.00  0.00     0.007 C 
ATOM     22  C   9T6 A1201     -17.401   2.339 -18.029  1.00  0.00     0.044 C 
ATOM     23  C   9T6 A1201     -17.806   1.734 -19.384  1.00  0.00     0.059 C 
BRANCH  23  24
ATOM     24  O   9T6 A1201     -18.566   2.663 -20.146  1.00  0.00    -0.390 OA
ATOM     25  H   9T6 A1201     -18.156   3.540 -20.089  1.00  0.00     0.210 HD
ENDBRANCH  23  24
ENDBRANCH  12  14
ENDBRANCH   6  12
BRANCH   5  26
ATOM     26  C   9T6 A1201     -18.692  -2.082 -14.420  1.00  0.00     0.252 C 
ATOM     27  O   9T6 A1201     -19.089  -1.878 -15.552  1.00  0.00    -0.268 OA
ATOM     28  N   9T6 A1201     -19.420  -2.949 -13.664  1.00  0.00    -0.366 N 
ATOM     29  H   9T6 A1201     -20.227  -3.370 -14.038  1.00  0.00     0.159 HD
ATOM     30  H   9T6 A1201     -19.139  -3.154 -12.743  1.00  0.00     0.159 HD
ENDBRANCH   5  26
TORSDOF 4
ENDMDL
MODEL 5
REMARK VINA RESULT:    -5.687      1.570      3.619
REMARK INTER + INTRA:          -8.269
REMARK INTER:                  -7.292
REMARK INTRA:                  -0.976
REMARK UNBOUND:                -1.419
REMARK  4 active torsions:
REMARK  status: ('A' for Active; 'I' for Inactive)
REMARK    1  A    between atoms: C_5  and  C_8 
REMARK    2  A    between atoms: C_6  and  N_23 
REMARK       I    between atoms: C_8  and  N_22 
REMARK    3  A    between atoms: C_17  and  N_23 
REMARK    4  A    between atoms: C_18  and  O_25 
ROOT
ATOM      1  C   9T6 A1201     -14.252   0.375 -14.814  1.00  0.00     0.034 A 
ATOM      2  C   9T6 A1201     -17.274  -1.319 -12.609  1.00  0.00     0.108 A 
ATOM      3  C   9T6 A1201     -13.526   0.765 -13.767  1.00  0.00     0.090 A 
ATOM      4  C   9T6 A1201     -15.410  -0.273 -14.327  1.00  0.00     0.032 A 
ATOM      5  C   9T6 A1201     -17.524  -1.455 -13.954  1.00  0.00     0.069 A 
ATOM      6  C   9T6 A1201     -16.565  -0.904 -14.865  1.00  0.00     0.040 A 
ATOM      7  C   9T6 A1201     -15.247  -0.190 -12.948  1.00  0.00     0.117 A 
ATOM      8  N   9T6 A1201     -16.183  -0.733 -12.145  1.00  0.00    -0.351 N 
ATOM      9  HN  9T6 A1201     -16.044  -0.690 -11.135  1.00  0.00     0.166 HD
ATOM     10  N   9T6 A1201     -14.136   0.417 -12.656  1.00  0.00    -0.352 N 
ATOM     11  H   9T6 A1201     -13.803   0.590 -11.745  1.00  0.00     0.166 HD
ENDROOT
BRANCH   6  12
ATOM     12  N   9T6 A1201     -16.768  -1.041 -16.209  1.00  0.00    -0.286 NA
ATOM     13  H   9T6 A1201     -17.768  -0.843 -16.253  1.00  0.00     0.128 HD
BRANCH  12  14
ATOM     14  C   9T6 A1201     -16.289  -0.133 -17.251  1.00  0.00     0.068 C 
ATOM     15  C   9T6 A1201     -16.978   1.241 -17.100  1.00  0.00     0.007 C 
ATOM     16  C   9T6 A1201     -18.477   1.087 -17.330  1.00  0.00     0.011 C 
ATOM     17  C   9T6 A1201     -16.389   2.227 -18.113  1.00  0.00     0.044 C 
ATOM     18  C   9T6 A1201     -18.753   0.587 -18.755  1.00  0.00    -0.011 C 
ATOM     19  C   9T6 A1201     -18.110  -0.795 -18.915  1.00  0.00     0.011 C 
ATOM     20  C   9T6 A1201     -18.111   1.517 -19.789  1.00  0.00     0.042 C 
ATOM     21  C   9T6 A1201     -16.590  -0.675 -18.641  1.00  0.00     0.007 C 
ATOM     22  C   9T6 A1201     -15.957   0.300 -19.656  1.00  0.00     0.044 C 
ATOM     23  C   9T6 A1201     -16.617   1.683 -19.530  1.00  0.00     0.059 C 
BRANCH  23  24
ATOM     24  O   9T6 A1201     -16.088   2.586 -20.493  1.00  0.00    -0.390 OA
ATOM     25  H   9T6 A1201     -16.025   3.472 -20.106  1.00  0.00     0.210 HD
ENDBRANCH  23  24
ENDBRANCH  12  14
ENDBRANCH   6  12
BRANCH   5  26
ATOM     26  C   9T6 A1201     -18.755  -2.157 -14.382  1.00  0.00     0.252 C 
ATOM     27  O   9T6 A1201     -19.185  -1.988 -15.508  1.00  0.00    -0.268 OA
ATOM     28  N   9T6 A1201     -19.453  -3.009 -13.583  1.00  0.00    -0.366 N 
ATOM     29  H   9T6 A1201     -20.266  -3.447 -13.922  1.00  0.00     0.159 HD
ATOM     30  H   9T6 A1201     -19.145  -3.185 -12.665  1.00  0.00     0.159 HD
ENDBRANCH   5  26
TORSDOF 4
ENDMDL
MODEL 6
REMARK VINA RESULT:    -5.360      0.678      1.120
REMARK INTER + INTRA:          -7.875
REMARK INTER:                  -6.841
REMARK INTRA:                  -1.033
REMARK UNBOUND:                -1.419
REMARK  4 active torsions:
REMARK  status: ('A' for Active; 'I' for Inactive)
REMARK    1  A    between atoms: C_5  and  C_8 
REMARK    2  A    between atoms: C_6  and  N_23 
REMARK       I    between atoms: C_8  and  N_22 
REMARK    3  A    between atoms: C_17  and  N_23 
REMARK    4  A    between atoms: C_18  and  O_25 
ROOT
ATOM      1  C   9T6 A1201     -18.482  -2.058 -14.755  1.00  0.00     0.034 A 
ATOM      2  C   9T6 A1201     -15.343  -0.250 -12.820  1.00  0.00     0.108 A 
ATOM      3  C   9T6 A1201     -19.112  -2.450 -13.649  1.00  0.00     0.090 A 
ATOM      4  C   9T6 A1201     -17.308  -1.371 -14.370  1.00  0.00     0.032 A 
ATOM      5  C   9T6 A1201     -15.204  -0.129 -14.183  1.00  0.00     0.069 A 
ATOM      6  C   9T6 A1201     -16.217  -0.719 -15.007  1.00  0.00     0.040 A 
ATOM      7  C   9T6 A1201     -17.358  -1.438 -12.982  1.00  0.00     0.117 A 
ATOM      8  N   9T6 A1201     -16.378  -0.858 -12.263  1.00  0.00    -0.351 N 
ATOM      9  HN  9T6 A1201     -16.435  -0.889 -11.245  1.00  0.00     0.166 HD
ATOM     10  N   9T6 A1201     -18.426  -2.069 -12.595  1.00  0.00    -0.352 N 
ATOM     11  H   9T6 A1201     -18.681  -2.237 -11.658  1.00  0.00     0.166 HD
ENDROOT
BRANCH   6  12
ATOM     12  N   9T6 A1201     -16.124  -0.597 -16.364  1.00  0.00    -0.286 NA
ATOM     13  H   9T6 A1201     -16.792  -1.314 -16.648  1.00  0.00     0.128 HD
BRANCH  12  14
ATOM     14  C   9T6 A1201     -16.611   0.526 -17.165  1.00  0.00     0.068 C 
ATOM     15  C   9T6 A1201     -18.138   0.402 -17.360  1.00  0.00     0.007 C 
ATOM     16  C   9T6 A1201     -18.447  -0.856 -18.164  1.00  0.00     0.011 C 
ATOM     17  C   9T6 A1201     -18.666   1.638 -18.094  1.00  0.00     0.044 C 
ATOM     18  C   9T6 A1201     -17.810  -0.773 -19.558  1.00  0.00    -0.011 C 
ATOM     19  C   9T6 A1201     -16.289  -0.686 -19.389  1.00  0.00     0.011 C 
ATOM     20  C   9T6 A1201     -18.264   0.496 -20.287  1.00  0.00     0.042 C 
ATOM     21  C   9T6 A1201     -15.949   0.560 -18.535  1.00  0.00     0.007 C 
ATOM     22  C   9T6 A1201     -16.451   1.831 -19.252  1.00  0.00     0.044 C 
ATOM     23  C   9T6 A1201     -17.973   1.744 -19.460  1.00  0.00     0.059 C 
BRANCH  23  24
ATOM     24  O   9T6 A1201     -18.453   2.879 -20.167  1.00  0.00    -0.390 OA
ATOM     25  H   9T6 A1201     -18.786   3.537 -19.537  1.00  0.00     0.210 HD
ENDBRANCH  23  24
ENDBRANCH  12  14
ENDBRANCH   6  12
BRANCH   5  26
ATOM     26  C   9T6 A1201     -14.031   0.598 -14.717  1.00  0.00     0.252 C 
ATOM     27  O   9T6 A1201     -13.523   0.239 -15.763  1.00  0.00    -0.268 OA
ATOM     28  N   9T6 A1201     -13.471   1.677 -14.104  1.00  0.00    -0.366 N 
ATOM     29  H   9T6 A1201     -12.690   2.121 -14.507  1.00  0.00     0.159 HD
ATOM     30  H   9T6 A1201     -13.846   2.013 -13.259  1.00  0.00     0.159 HD
ENDBRANCH   5  26
TORSDOF 4
ENDMDL
MODEL 7
REMARK VINA RESULT:    -4.118      2.259      3.877
REMARK INTER + INTRA:          -6.379
REMARK INTER:                  -5.842
REMARK INTRA:                  -0.537
REMARK UNBOUND:                -1.419
REMARK  4 active torsions:
REMARK  status: ('A' for Active; 'I' for Inactive)
REMARK    1  A    between atoms: C_5  and  C_8 
REMARK    2  A    between atoms: C_6  and  N_23 
REMARK       I    between atoms: C_8  and  N_22 
REMARK    3  A    between atoms: C_17  and  N_23 
REMARK    4  A    between atoms: C_18  and  O_25 
ROOT
ATOM      1  C   9T6 A1201     -15.382  -0.239 -15.165  1.00  0.00     0.034 A 
ATOM      2  C   9T6 A1201     -18.652  -2.290 -13.764  1.00  0.00     0.108 A 
ATOM      3  C   9T6 A1201     -14.698  -0.284 -14.023  1.00  0.00     0.090 A 
ATOM      4  C   9T6 A1201     -16.613  -0.906 -14.964  1.00  0.00     0.032 A 
ATOM      5  C   9T6 A1201     -18.826  -1.950 -15.085  1.00  0.00     0.069 A 
ATOM      6  C   9T6 A1201     -17.774  -1.217 -15.723  1.00  0.00     0.040 A 
ATOM      7  C   9T6 A1201     -16.532  -1.298 -13.632  1.00  0.00     0.117 A 
ATOM      8  N   9T6 A1201     -17.554  -1.990 -13.091  1.00  0.00    -0.351 N 
ATOM      9  HN  9T6 A1201     -17.476  -2.296 -12.121  1.00  0.00     0.166 HD
ATOM     10  N   9T6 A1201     -15.401  -0.923 -13.115  1.00  0.00    -0.352 N 
ATOM     11  H   9T6 A1201     -15.114  -1.092 -12.188  1.00  0.00     0.166 HD
ENDROOT
BRANCH   6  12
ATOM     12  N   9T6 A1201     -17.901  -0.884 -17.042  1.00  0.00    -0.286 NA
ATOM     13  H   9T6 A1201     -18.471  -0.043 -16.953  1.00  0.00     0.128 HD
BRANCH  12  14
ATOM     14  C   9T6 A1201     -16.839  -0.373 -17.909  1.00  0.00     0.068 C 
ATOM     15  C   9T6 A1201     -16.845   1.171 -17.884  1.00  0.00     0.007 C 
ATOM     16  C   9T6 A1201     -18.155   1.684 -18.472  1.00  0.00     0.011 C 
ATOM     17  C   9T6 A1201     -15.660   1.705 -18.694  1.00  0.00     0.044 C 
ATOM     18  C   9T6 A1201     -18.294   1.246 -19.937  1.00  0.00    -0.011 C 
ATOM     19  C   9T6 A1201     -18.327  -0.285 -19.982  1.00  0.00     0.011 C 
ATOM     20  C   9T6 A1201     -17.083   1.704 -20.756  1.00  0.00     0.042 C 
ATOM     21  C   9T6 A1201     -17.026  -0.834 -19.347  1.00  0.00     0.007 C 
ATOM     22  C   9T6 A1201     -15.807  -0.331 -20.148  1.00  0.00     0.044 C 
ATOM     23  C   9T6 A1201     -15.779   1.207 -20.141  1.00  0.00     0.059 C 
BRANCH  23  24
ATOM     24  O   9T6 A1201     -14.695   1.697 -20.919  1.00  0.00    -0.390 OA
ATOM     25  H   9T6 A1201     -14.151   0.954 -21.221  1.00  0.00     0.210 HD
ENDBRANCH  23  24
ENDBRANCH  12  14
ENDBRANCH   6  12
BRANCH   5  26
ATOM     26  C   9T6 A1201     -20.074  -2.358 -15.767  1.00  0.00     0.252 C 
ATOM     27  O   9T6 A1201     -20.647  -3.375 -15.421  1.00  0.00    -0.268 OA
ATOM     28  N   9T6 A1201     -20.647  -1.648 -16.778  1.00  0.00    -0.366 N 
ATOM     29  H   9T6 A1201     -21.479  -1.969 -17.194  1.00  0.00     0.159 HD
ATOM     30  H   9T6 A1201     -20.229  -0.815 -17.092  1.00  0.00     0.159 HD
ENDBRANCH   5  26
TORSDOF 4
ENDMDL
MODEL 8
REMARK VINA RESULT:    -3.903      1.169      1.810
REMARK INTER + INTRA:          -6.120
REMARK INTER:                  -5.614
REMARK INTRA:                  -0.506
REMARK UNBOUND:                -1.419
REMARK  4 active torsions:
REMARK  status: ('A' for Active; 'I' for Inactive)
REMARK    1  A    between atoms: C_5  and  C_8 
REMARK    2  A    between atoms: C_6  and  N_23 
REMARK       I    between atoms: C_8  and  N_22 
REMARK    3  A    between atoms: C_17  and  N_23 
REMARK    4  A    between atoms: C_18  and  O_25 
ROOT
ATOM      1  C   9T6 A1201     -18.995  -1.594 -15.720  1.00  0.00     0.034 A 
ATOM      2  C   9T6 A1201     -15.874  -1.097 -13.098  1.00  0.00     0.108 A 
ATOM      3  C   9T6 A1201     -19.719  -2.374 -14.919  1.00  0.00     0.090 A 
ATOM      4  C   9T6 A1201     -17.805  -1.251 -15.039  1.00  0.00     0.032 A 
ATOM      5  C   9T6 A1201     -15.640  -0.404 -14.263  1.00  0.00     0.069 A 
ATOM      6  C   9T6 A1201     -16.635  -0.484 -15.291  1.00  0.00     0.040 A 
ATOM      7  C   9T6 A1201     -17.949  -1.913 -13.824  1.00  0.00     0.117 A 
ATOM      8  N   9T6 A1201     -16.980  -1.795 -12.896  1.00  0.00    -0.351 N 
ATOM      9  HN  9T6 A1201     -17.104  -2.263 -11.998  1.00  0.00     0.166 HD
ATOM     10  N   9T6 A1201     -19.078  -2.555 -13.786  1.00  0.00    -0.352 N 
ATOM     11  H   9T6 A1201     -19.403  -3.092 -13.027  1.00  0.00     0.166 HD
ENDROOT
BRANCH   6  12
ATOM     12  N   9T6 A1201     -16.448   0.211 -16.452  1.00  0.00    -0.286 NA
ATOM     13  H   9T6 A1201     -15.435   0.133 -16.540  1.00  0.00     0.128 HD
BRANCH  12  14
ATOM     14  C   9T6 A1201     -16.846  -0.224 -17.791  1.00  0.00     0.068 C 
ATOM     15  C   9T6 A1201     -15.820   0.283 -18.828  1.00  0.00     0.007 C 
ATOM     16  C   9T6 A1201     -15.836   1.808 -18.857  1.00  0.00     0.011 C 
ATOM     17  C   9T6 A1201     -16.169  -0.272 -20.213  1.00  0.00     0.044 C 
ATOM     18  C   9T6 A1201     -17.217   2.322 -19.285  1.00  0.00    -0.011 C 
ATOM     19  C   9T6 A1201     -18.247   1.862 -18.248  1.00  0.00     0.011 C 
ATOM     20  C   9T6 A1201     -17.624   1.723 -20.635  1.00  0.00     0.042 C 
ATOM     21  C   9T6 A1201     -18.220   0.316 -18.166  1.00  0.00     0.007 C 
ATOM     22  C   9T6 A1201     -18.584  -0.282 -19.540  1.00  0.00     0.044 C 
ATOM     23  C   9T6 A1201     -17.578   0.199 -20.600  1.00  0.00     0.059 C 
BRANCH  23  24
ATOM     24  O   9T6 A1201     -17.924  -0.295 -21.888  1.00  0.00    -0.390 OA
ATOM     25  H   9T6 A1201     -18.425  -1.119 -21.794  1.00  0.00     0.210 HD
ENDBRANCH  23  24
ENDBRANCH  12  14
ENDBRANCH   6  12
BRANCH   5  26
ATOM     26  C   9T6 A1201     -14.390   0.378 -14.388  1.00  0.00     0.252 C 
ATOM     27  O   9T6 A1201     -13.957   0.652 -15.492  1.00  0.00    -0.268 OA
ATOM     28  N   9T6 A1201     -13.676   0.832 -13.321  1.00  0.00    -0.366 N 
ATOM     29  H   9T6 A1201     -12.851   1.348 -13.466  1.00  0.00     0.159 HD
ATOM     30  H   9T6 A1201     -13.985   0.644 -12.406  1.00  0.00     0.159 HD
ENDBRANCH   5  26
TORSDOF 4
ENDMDL
