MODEL 1
REMARK VINA RESULT:    -9.863      0.000      0.000
REMARK INTER + INTRA:         -12.054
REMARK INTER:                 -11.593
REMARK INTRA:                  -0.462
REMARK UNBOUND:                -0.462
REMARK  3 active torsions:
REMARK  status: ('A' for Active; 'I' for Inactive)
REMARK    1  A    between atoms: C8_5  and  C16_13 
REMARK    2  A    between atoms: C19_14  and  C17_22 
REMARK    3  A    between atoms: N1_18  and  C17_22 
ROOT
ATOM      1  C1  LOD A 401     -11.772  10.592 -15.996  1.00  0.00     0.024 A 
ATOM      2  C2  LOD A 401     -10.483  10.657 -16.553  1.00  0.00     0.034 A 
ATOM      3  C3  LOD A 401     -10.202  10.305 -17.881  1.00  0.00     0.031 A 
ATOM      4  C7  LOD A 401     -17.428   6.978 -19.991  1.00  0.00     0.050 A 
ATOM      5  C8  LOD A 401     -18.767   7.297 -19.731  1.00  0.00     0.043 A 
ATOM      6  C9  LOD A 401     -19.088   8.464 -19.004  1.00  0.00     0.021 A 
ATOM      7  C10 LOD A 401     -18.046   9.294 -18.557  1.00  0.00     0.040 A 
ATOM      8  C11 LOD A 401     -14.788  10.233 -19.403  1.00  0.00     0.192 C 
ATOM      9  C12 LOD A 401     -13.948   7.933 -18.883  1.00  0.00     0.139 C 
ATOM     10  C13 LOD A 401     -16.360   7.791 -19.541  1.00  0.00     0.065 A 
ATOM     11  C14 LOD A 401     -16.696   8.981 -18.824  1.00  0.00     0.095 A 
ATOM     12  C15 LOD A 401     -13.537   9.334 -19.216  1.00  0.00     0.026 C 
ATOM     13  C22 LOD A 401     -11.192   9.437 -20.090  1.00  0.00     0.040 C 
ATOM     14  N1  LOD A 401     -15.037   7.365 -19.685  1.00  0.00    -0.377 N 
ATOM     15  O1  LOD A 401     -15.743   9.910 -18.393  1.00  0.00    -0.348 OA
ATOM     16  C4  LOD A 401     -11.270   9.882 -18.667  1.00  0.00    -0.049 A 
ATOM     17  C5  LOD A 401     -12.565   9.809 -18.168  1.00  0.00    -0.039 A 
ATOM     18  C6  LOD A 401     -12.833  10.161 -16.828  1.00  0.00     0.010 A 
ATOM     19 CL1  LOD A 401      -9.197  11.234 -15.571  1.00  0.00    -0.084 Cl
ATOM     20  C23 LOD A 401     -12.686   9.292 -20.498  1.00  0.00     0.023 C 
ENDROOT
BRANCH  14  21
ATOM     21  C17 LOD A 401     -14.641   6.248 -20.558  1.00  0.00     0.127 C 
BRANCH  21  22
ATOM     22  C19 LOD A 401     -14.678   4.937 -19.713  1.00  0.00     0.003 C 
ATOM     23  C20 LOD A 401     -15.253   3.646 -20.345  1.00  0.00     0.006 C 
ATOM     24  C21 LOD A 401     -14.181   2.827 -19.585  1.00  0.00     0.001 C 
ATOM     25  C18 LOD A 401     -13.395   4.158 -19.353  1.00  0.00     0.006 C 
ENDBRANCH  21  22
ENDBRANCH  14  21
BRANCH   5  26
ATOM     26  C16 LOD A 401     -19.875   6.457 -20.190  1.00  0.00     0.209 C 
ATOM     27  O3  LOD A 401     -20.063   6.371 -21.500  1.00  0.00    -0.644 OA
ATOM     28  O2  LOD A 401     -20.573   5.890 -19.417  1.00  0.00    -0.644 OA
ENDBRANCH   5  26
TORSDOF 3
ENDMDL
