MODEL 1
REMARK VINA RESULT:    -3.322      0.000      0.000
REMARK INTER + INTRA:          -3.709
REMARK INTER:                  -3.516
REMARK INTRA:                  -0.194
REMARK UNBOUND:                -0.194
REMARK  1 active torsions:
REMARK  status: ('A' for Active; 'I' for Inactive)
REMARK    1  A    between atoms: C1_1  and  N10_8 
ROOT
HETATM    1  C1  42C A 401      -7.472  17.881  -4.698  1.00  0.00     0.134 A 
HETATM    2  C2  42C A 401      -7.437  19.097  -3.999  1.00  0.00     0.122 A 
HETATM    3  C3  42C A 401      -7.966  19.085  -2.651  1.00  0.00     0.138 A 
HETATM    4  C5  42C A 401      -8.445  16.912  -2.843  1.00  0.00     0.183 A 
HETATM    5  C8  42C A 401      -7.288  21.121  -3.063  1.00  0.00     0.182 A 
HETATM    6  N6  42C A 401      -7.982  16.769  -4.124  1.00  0.00    -0.337 N 
ATOM      7  H6  42C A 401      -8.019  15.876  -4.615  1.00  0.00     0.168 HD
HETATM    8  N4  42C A 401      -8.484  17.986  -2.040  1.00  0.00    -0.337 N 
ATOM      9  H4  42C A 401      -8.856  17.979  -1.091  1.00  0.00     0.168 HD
HETATM   10  N9  42C A 401      -7.858  20.373  -2.089  1.00  0.00    -0.337 N 
HETATM   11  N7  42C A 401      -7.014  20.408  -4.236  1.00  0.00    -0.346 N 
ATOM     12  H7  42C A 401      -6.591  20.772  -5.090  1.00  0.00     0.167 HD
HETATM   13  H   42C A 401      -8.135  20.663  -1.191  1.00  0.00     0.168 HD
ENDROOT
BRANCH   1  14
HETATM   14  N10 42C A 401      -6.974  17.789  -6.039  1.00  0.00    -0.374 N 
HETATM   15  C11 42C A 401      -5.514  17.902  -6.259  1.00  0.00     0.150 C 
HETATM   16  C12 42C A 401      -7.983  17.625  -7.118  1.00  0.00     0.150 C 
ENDBRANCH   1  14
TORSDOF 1
ENDMDL
MODEL 2
REMARK VINA RESULT:    -3.319      0.031      1.073
REMARK INTER + INTRA:          -3.706
REMARK INTER:                  -3.513
REMARK INTRA:                  -0.193
REMARK UNBOUND:                -0.194
REMARK  1 active torsions:
REMARK  status: ('A' for Active; 'I' for Inactive)
REMARK    1  A    between atoms: C1_1  and  N10_8 
ROOT
HETATM    1  C1  42C A 401      -7.458  17.884  -4.706  1.00  0.00     0.134 A 
HETATM    2  C2  42C A 401      -7.432  19.095  -3.998  1.00  0.00     0.122 A 
HETATM    3  C3  42C A 401      -7.964  19.071  -2.652  1.00  0.00     0.138 A 
HETATM    4  C5  42C A 401      -8.430  16.897  -2.861  1.00  0.00     0.183 A 
HETATM    5  C8  42C A 401      -7.297  21.113  -3.049  1.00  0.00     0.182 A 
HETATM    6  N6  42C A 401      -7.963  16.765  -4.141  1.00  0.00    -0.337 N 
ATOM      7  H6  42C A 401      -7.994  15.875  -4.638  1.00  0.00     0.168 HD
HETATM    8  N4  42C A 401      -8.477  17.965  -2.050  1.00  0.00    -0.337 N 
ATOM      9  H4  42C A 401      -8.851  17.949  -1.102  1.00  0.00     0.168 HD
HETATM   10  N9  42C A 401      -7.865  20.355  -2.081  1.00  0.00    -0.337 N 
HETATM   11  N7  42C A 401      -7.016  20.411  -4.225  1.00  0.00    -0.346 N 
ATOM     12  H7  42C A 401      -6.594  20.783  -5.076  1.00  0.00     0.167 HD
HETATM   13  H   42C A 401      -8.145  20.638  -1.181  1.00  0.00     0.168 HD
ENDROOT
BRANCH   1  14
HETATM   14  N10 42C A 401      -6.957  17.805  -6.046  1.00  0.00    -0.374 N 
HETATM   15  C11 42C A 401      -7.923  17.608  -7.151  1.00  0.00     0.150 C 
HETATM   16  C12 42C A 401      -5.483  17.890  -6.216  1.00  0.00     0.150 C 
ENDBRANCH   1  14
TORSDOF 1
ENDMDL
MODEL 3
REMARK VINA RESULT:    -3.159      1.723      3.390
REMARK INTER + INTRA:          -3.537
REMARK INTER:                  -3.325
REMARK INTRA:                  -0.212
REMARK UNBOUND:                -0.194
REMARK  1 active torsions:
REMARK  status: ('A' for Active; 'I' for Inactive)
REMARK    1  A    between atoms: C1_1  and  N10_8 
ROOT
HETATM    1  C1  42C A 401      -7.558  18.673  -3.674  1.00  0.00     0.134 A 
HETATM    2  C2  42C A 401      -6.174  18.670  -3.898  1.00  0.00     0.122 A 
HETATM    3  C3  42C A 401      -5.476  19.917  -3.662  1.00  0.00     0.138 A 
HETATM    4  C5  42C A 401      -7.398  20.897  -3.080  1.00  0.00     0.183 A 
HETATM    5  C8  42C A 401      -3.988  18.456  -4.311  1.00  0.00     0.182 A 
HETATM    6  N6  42C A 401      -8.189  19.794  -3.261  1.00  0.00    -0.337 N 
ATOM      7  H6  42C A 401      -9.195  19.818  -3.095  1.00  0.00     0.168 HD
HETATM    8  N4  42C A 401      -6.077  21.064  -3.244  1.00  0.00    -0.337 N 
ATOM      9  H4  42C A 401      -5.585  21.941  -3.077  1.00  0.00     0.168 HD
HETATM   10  N9  42C A 401      -4.103  19.750  -3.930  1.00  0.00    -0.337 N 
HETATM   11  N7  42C A 401      -5.200  17.757  -4.314  1.00  0.00    -0.346 N 
ATOM     12  H7  42C A 401      -5.344  16.779  -4.567  1.00  0.00     0.167 HD
HETATM   13  H   42C A 401      -3.389  20.422  -3.856  1.00  0.00     0.168 HD
ENDROOT
BRANCH   1  14
HETATM   14  N10 42C A 401      -8.339  17.488  -3.882  1.00  0.00    -0.374 N 
HETATM   15  C11 42C A 401      -8.721  16.678  -2.703  1.00  0.00     0.150 C 
HETATM   16  C12 42C A 401      -8.674  17.146  -5.289  1.00  0.00     0.150 C 
ENDBRANCH   1  14
TORSDOF 1
ENDMDL
MODEL 4
REMARK VINA RESULT:    -3.124      0.722      2.864
REMARK INTER + INTRA:          -3.500
REMARK INTER:                  -3.297
REMARK INTRA:                  -0.203
REMARK UNBOUND:                -0.194
REMARK  1 active torsions:
REMARK  status: ('A' for Active; 'I' for Inactive)
REMARK    1  A    between atoms: C1_1  and  N10_8 
ROOT
HETATM    1  C1  42C A 401      -7.314  18.623  -5.024  1.00  0.00     0.134 A 
HETATM    2  C2  42C A 401      -7.925  17.777  -4.086  1.00  0.00     0.122 A 
HETATM    3  C3  42C A 401      -8.244  18.359  -2.799  1.00  0.00     0.138 A 
HETATM    4  C5  42C A 401      -7.401  20.319  -3.461  1.00  0.00     0.183 A 
HETATM    5  C8  42C A 401      -8.889  16.272  -2.745  1.00  0.00     0.182 A 
HETATM    6  N6  42C A 401      -7.042  19.911  -4.718  1.00  0.00    -0.337 N 
ATOM      7  H6  42C A 401      -6.596  20.542  -5.383  1.00  0.00     0.168 HD
HETATM    8  N4  42C A 401      -7.987  19.650  -2.457  1.00  0.00    -0.337 N 
ATOM      9  H4  42C A 401      -8.213  20.059  -1.550  1.00  0.00     0.168 HD
HETATM   10  N9  42C A 401      -8.849  17.387  -1.978  1.00  0.00    -0.337 N 
HETATM   11  N7  42C A 401      -8.346  16.445  -4.022  1.00  0.00    -0.346 N 
ATOM     12  H7  42C A 401      -8.272  15.742  -4.758  1.00  0.00     0.167 HD
HETATM   13  H   42C A 401      -9.171  17.495  -1.054  1.00  0.00     0.168 HD
ENDROOT
BRANCH   1  14
HETATM   14  N10 42C A 401      -6.957  18.141  -6.326  1.00  0.00    -0.374 N 
HETATM   15  C11 42C A 401      -8.039  17.883  -7.304  1.00  0.00     0.150 C 
HETATM   16  C12 42C A 401      -5.513  17.901  -6.579  1.00  0.00     0.150 C 
ENDBRANCH   1  14
TORSDOF 1
ENDMDL
MODEL 5
REMARK VINA RESULT:    -3.116      1.734      3.413
REMARK INTER + INTRA:          -3.491
REMARK INTER:                  -3.280
REMARK INTRA:                  -0.212
REMARK UNBOUND:                -0.194
REMARK  1 active torsions:
REMARK  status: ('A' for Active; 'I' for Inactive)
REMARK    1  A    between atoms: C1_1  and  N10_8 
ROOT
HETATM    1  C1  42C A 401      -7.536  18.581  -3.749  1.00  0.00     0.134 A 
HETATM    2  C2  42C A 401      -6.148  18.604  -3.948  1.00  0.00     0.122 A 
HETATM    3  C3  42C A 401      -5.477  19.862  -3.696  1.00  0.00     0.138 A 
HETATM    4  C5  42C A 401      -7.426  20.806  -3.147  1.00  0.00     0.183 A 
HETATM    5  C8  42C A 401      -3.951  18.429  -4.321  1.00  0.00     0.182 A 
HETATM    6  N6  42C A 401      -8.194  19.689  -3.345  1.00  0.00    -0.337 N 
ATOM      7  H6  42C A 401      -9.203  19.695  -3.197  1.00  0.00     0.168 HD
HETATM    8  N4  42C A 401      -6.106  20.997  -3.287  1.00  0.00    -0.337 N 
ATOM      9  H4  42C A 401      -5.633  21.882  -3.109  1.00  0.00     0.168 HD
HETATM   10  N9  42C A 401      -4.097  19.720  -3.940  1.00  0.00    -0.337 N 
HETATM   11  N7  42C A 401      -5.150  17.708  -4.347  1.00  0.00    -0.346 N 
ATOM     12  H7  42C A 401      -5.272  16.729  -4.606  1.00  0.00     0.167 HD
HETATM   13  H   42C A 401      -3.396  20.405  -3.852  1.00  0.00     0.168 HD
ENDROOT
BRANCH   1  14
HETATM   14  N10 42C A 401      -8.291  17.383  -3.973  1.00  0.00    -0.374 N 
HETATM   15  C11 42C A 401      -8.669  17.037  -5.363  1.00  0.00     0.150 C 
HETATM   16  C12 42C A 401      -8.671  16.595  -2.772  1.00  0.00     0.150 C 
ENDBRANCH   1  14
TORSDOF 1
ENDMDL
MODEL 6
REMARK VINA RESULT:    -3.085      1.761      3.457
REMARK INTER + INTRA:          -3.459
REMARK INTER:                  -3.247
REMARK INTRA:                  -0.212
REMARK UNBOUND:                -0.194
REMARK  1 active torsions:
REMARK  status: ('A' for Active; 'I' for Inactive)
REMARK    1  A    between atoms: C1_1  and  N10_8 
ROOT
HETATM    1  C1  42C A 401      -7.466  18.615  -3.747  1.00  0.00     0.134 A 
HETATM    2  C2  42C A 401      -6.078  18.617  -3.954  1.00  0.00     0.122 A 
HETATM    3  C3  42C A 401      -5.390  19.870  -3.723  1.00  0.00     0.138 A 
HETATM    4  C5  42C A 401      -7.323  20.846  -3.178  1.00  0.00     0.183 A 
HETATM    5  C8  42C A 401      -3.886  18.408  -4.337  1.00  0.00     0.182 A 
HETATM    6  N6  42C A 401      -8.107  19.738  -3.356  1.00  0.00    -0.337 N 
ATOM      7  H6  42C A 401      -9.115  19.759  -3.202  1.00  0.00     0.168 HD
HETATM    8  N4  42C A 401      -6.001  21.018  -3.328  1.00  0.00    -0.337 N 
ATOM      9  H4  42C A 401      -5.515  21.900  -3.164  1.00  0.00     0.168 HD
HETATM   10  N9  42C A 401      -4.013  19.706  -3.972  1.00  0.00    -0.337 N 
HETATM   11  N7  42C A 401      -5.095  17.703  -4.346  1.00  0.00    -0.346 N 
ATOM     12  H7  42C A 401      -5.231  16.722  -4.590  1.00  0.00     0.167 HD
HETATM   13  H   42C A 401      -3.303  20.383  -3.898  1.00  0.00     0.168 HD
ENDROOT
BRANCH   1  14
HETATM   14  N10 42C A 401      -8.238  17.425  -3.951  1.00  0.00    -0.374 N 
HETATM   15  C11 42C A 401      -8.620  17.059  -5.334  1.00  0.00     0.150 C 
HETATM   16  C12 42C A 401      -8.629  16.663  -2.736  1.00  0.00     0.150 C 
ENDBRANCH   1  14
TORSDOF 1
ENDMDL
MODEL 7
REMARK VINA RESULT:    -3.055      0.982      2.963
REMARK INTER + INTRA:          -3.427
REMARK INTER:                  -3.212
REMARK INTRA:                  -0.215
REMARK UNBOUND:                -0.194
REMARK  1 active torsions:
REMARK  status: ('A' for Active; 'I' for Inactive)
REMARK    1  A    between atoms: C1_1  and  N10_8 
ROOT
HETATM    1  C1  42C A 401      -6.323  18.836  -4.502  1.00  0.00     0.134 A 
HETATM    2  C2  42C A 401      -7.242  18.083  -3.757  1.00  0.00     0.122 A 
HETATM    3  C3  42C A 401      -8.041  18.807  -2.790  1.00  0.00     0.138 A 
HETATM    4  C5  42C A 401      -7.026  20.713  -3.360  1.00  0.00     0.183 A 
HETATM    5  C8  42C A 401      -8.636  16.708  -2.680  1.00  0.00     0.182 A 
HETATM    6  N6  42C A 401      -6.204  20.168  -4.309  1.00  0.00    -0.337 N 
ATOM      7  H6  42C A 401      -5.541  20.734  -4.839  1.00  0.00     0.168 HD
HETATM    8  N4  42C A 401      -7.950  20.146  -2.570  1.00  0.00    -0.337 N 
ATOM      9  H4  42C A 401      -8.514  20.655  -1.890  1.00  0.00     0.168 HD
HETATM   10  N9  42C A 401      -8.908  17.915  -2.130  1.00  0.00    -0.337 N 
HETATM   11  N7  42C A 401      -7.642  16.746  -3.663  1.00  0.00    -0.346 N 
ATOM     12  H7  42C A 401      -7.281  15.959  -4.202  1.00  0.00     0.167 HD
HETATM   13  H   42C A 401      -9.564  18.122  -1.426  1.00  0.00     0.168 HD
ENDROOT
BRANCH   1  14
HETATM   14  N10 42C A 401      -5.484  18.211  -5.483  1.00  0.00    -0.374 N 
HETATM   15  C11 42C A 401      -6.017  18.023  -6.851  1.00  0.00     0.150 C 
HETATM   16  C12 42C A 401      -4.142  17.763  -5.028  1.00  0.00     0.150 C 
ENDBRANCH   1  14
TORSDOF 1
ENDMDL
MODEL 8
REMARK VINA RESULT:    -2.996      1.725      4.450
REMARK INTER + INTRA:          -3.365
REMARK INTER:                  -3.149
REMARK INTRA:                  -0.215
REMARK UNBOUND:                -0.194
REMARK  1 active torsions:
REMARK  status: ('A' for Active; 'I' for Inactive)
REMARK    1  A    between atoms: C1_1  and  N10_8 
ROOT
HETATM    1  C1  42C A 401      -6.277  18.156  -4.326  1.00  0.00     0.134 A 
HETATM    2  C2  42C A 401      -6.547  17.999  -5.694  1.00  0.00     0.122 A 
HETATM    3  C3  42C A 401      -5.416  17.707  -6.549  1.00  0.00     0.138 A 
HETATM    4  C5  42C A 401      -4.050  17.763  -4.782  1.00  0.00     0.183 A 
HETATM    5  C8  42C A 401      -7.188  17.786  -7.824  1.00  0.00     0.182 A 
HETATM    6  N6  42C A 401      -5.017  18.041  -3.854  1.00  0.00    -0.337 N 
ATOM      7  H6  42C A 401      -4.798  18.154  -2.864  1.00  0.00     0.168 HD
HETATM    8  N4  42C A 401      -4.135  17.582  -6.109  1.00  0.00    -0.337 N 
ATOM      9  H4  42C A 401      -3.339  17.375  -6.712  1.00  0.00     0.168 HD
HETATM   10  N9  42C A 401      -5.851  17.579  -7.882  1.00  0.00    -0.337 N 
HETATM   11  N7  42C A 401      -7.664  18.046  -6.534  1.00  0.00    -0.346 N 
ATOM     12  H7  42C A 401      -8.629  18.231  -6.262  1.00  0.00     0.167 HD
HETATM   13  H   42C A 401      -5.306  17.382  -8.678  1.00  0.00     0.168 HD
ENDROOT
BRANCH   1  14
HETATM   14  N10 42C A 401      -7.330  18.449  -3.398  1.00  0.00    -0.374 N 
HETATM   15  C11 42C A 401      -8.020  17.320  -2.734  1.00  0.00     0.150 C 
HETATM   16  C12 42C A 401      -7.672  19.883  -3.203  1.00  0.00     0.150 C 
ENDBRANCH   1  14
TORSDOF 1
ENDMDL
MODEL 9
REMARK VINA RESULT:    -2.973      1.734      4.434
REMARK INTER + INTRA:          -3.340
REMARK INTER:                  -3.127
REMARK INTRA:                  -0.213
REMARK UNBOUND:                -0.194
REMARK  1 active torsions:
REMARK  status: ('A' for Active; 'I' for Inactive)
REMARK    1  A    between atoms: C1_1  and  N10_8 
ROOT
HETATM    1  C1  42C A 401      -6.277  18.174  -4.342  1.00  0.00     0.134 A 
HETATM    2  C2  42C A 401      -6.536  18.008  -5.711  1.00  0.00     0.122 A 
HETATM    3  C3  42C A 401      -5.399  17.700  -6.553  1.00  0.00     0.138 A 
HETATM    4  C5  42C A 401      -4.049  17.759  -4.774  1.00  0.00     0.183 A 
HETATM    5  C8  42C A 401      -7.159  17.783  -7.845  1.00  0.00     0.182 A 
HETATM    6  N6  42C A 401      -5.022  18.052  -3.857  1.00  0.00    -0.337 N 
ATOM      7  H6  42C A 401      -4.812  18.172  -2.866  1.00  0.00     0.168 HD
HETATM    8  N4  42C A 401      -4.124  17.568  -6.100  1.00  0.00    -0.337 N 
ATOM      9  H4  42C A 401      -3.324  17.350  -6.694  1.00  0.00     0.168 HD
HETATM   10  N9  42C A 401      -5.823  17.565  -7.889  1.00  0.00    -0.337 N 
HETATM   11  N7  42C A 401      -7.645  18.057  -6.562  1.00  0.00    -0.346 N 
ATOM     12  H7  42C A 401      -8.611  18.253  -6.300  1.00  0.00     0.167 HD
HETATM   13  H   42C A 401      -5.273  17.357  -8.678  1.00  0.00     0.168 HD
ENDROOT
BRANCH   1  14
HETATM   14  N10 42C A 401      -7.336  18.483  -3.426  1.00  0.00    -0.374 N 
HETATM   15  C11 42C A 401      -7.671  19.906  -3.188  1.00  0.00     0.150 C 
HETATM   16  C12 42C A 401      -7.995  17.335  -2.751  1.00  0.00     0.150 C 
ENDBRANCH   1  14
TORSDOF 1
ENDMDL
MODEL 10
REMARK VINA RESULT:    -2.849      1.842      3.279
REMARK INTER + INTRA:          -3.209
REMARK INTER:                  -2.995
REMARK INTRA:                  -0.214
REMARK UNBOUND:                -0.194
REMARK  1 active torsions:
REMARK  status: ('A' for Active; 'I' for Inactive)
REMARK    1  A    between atoms: C1_1  and  N10_8 
ROOT
HETATM    1  C1  42C A 401      -6.372  18.088  -4.223  1.00  0.00     0.134 A 
HETATM    2  C2  42C A 401      -7.211  17.985  -5.342  1.00  0.00     0.122 A 
HETATM    3  C3  42C A 401      -8.528  17.427  -5.116  1.00  0.00     0.138 A 
HETATM    4  C5  42C A 401      -8.061  17.174  -2.946  1.00  0.00     0.183 A 
HETATM    5  C8  42C A 401      -8.384  17.906  -7.242  1.00  0.00     0.182 A 
HETATM    6  N6  42C A 401      -6.791  17.680  -3.006  1.00  0.00    -0.337 N 
ATOM      7  H6  42C A 401      -6.196  17.744  -2.180  1.00  0.00     0.168 HD
HETATM    8  N4  42C A 401      -8.984  17.008  -3.905  1.00  0.00    -0.337 N 
ATOM      9  H4  42C A 401      -9.912  16.616  -3.747  1.00  0.00     0.168 HD
HETATM   10  N9  42C A 401      -9.242  17.391  -6.330  1.00  0.00    -0.337 N 
HETATM   11  N7  42C A 401      -7.146  18.279  -6.708  1.00  0.00    -0.346 N 
ATOM     12  H7  42C A 401      -6.357  18.683  -7.212  1.00  0.00     0.167 HD
HETATM   13  H   42C A 401     -10.158  17.065  -6.480  1.00  0.00     0.168 HD
ENDROOT
BRANCH   1  14
HETATM   14  N10 42C A 401      -5.048  18.625  -4.344  1.00  0.00    -0.374 N 
HETATM   15  C11 42C A 401      -4.823  20.042  -3.976  1.00  0.00     0.150 C 
HETATM   16  C12 42C A 401      -4.001  17.712  -4.873  1.00  0.00     0.150 C 
ENDBRANCH   1  14
TORSDOF 1
ENDMDL
MODEL 11
REMARK VINA RESULT:    -2.836      1.705      4.455
REMARK INTER + INTRA:          -3.196
REMARK INTER:                  -2.981
REMARK INTRA:                  -0.214
REMARK UNBOUND:                -0.194
REMARK  1 active torsions:
REMARK  status: ('A' for Active; 'I' for Inactive)
REMARK    1  A    between atoms: C1_1  and  N10_8 
ROOT
HETATM    1  C1  42C A 401      -6.305  18.158  -4.492  1.00  0.00     0.134 A 
HETATM    2  C2  42C A 401      -6.612  18.080  -5.859  1.00  0.00     0.122 A 
HETATM    3  C3  42C A 401      -5.514  17.775  -6.753  1.00  0.00     0.138 A 
HETATM    4  C5  42C A 401      -4.111  17.678  -5.018  1.00  0.00     0.183 A 
HETATM    5  C8  42C A 401      -7.306  18.001  -7.981  1.00  0.00     0.182 A 
HETATM    6  N6  42C A 401      -5.043  17.958  -4.055  1.00  0.00    -0.337 N 
ATOM      7  H6  42C A 401      -4.799  18.013  -3.066  1.00  0.00     0.168 HD
HETATM    8  N4  42C A 401      -4.232  17.566  -6.349  1.00  0.00    -0.337 N 
ATOM      9  H4  42C A 401      -3.460  17.350  -6.979  1.00  0.00     0.168 HD
HETATM   10  N9  42C A 401      -5.983  17.732  -8.081  1.00  0.00    -0.337 N 
HETATM   11  N7  42C A 401      -7.742  18.221  -6.670  1.00  0.00    -0.346 N 
ATOM     12  H7  42C A 401      -8.691  18.441  -6.367  1.00  0.00     0.167 HD
HETATM   13  H   42C A 401      -5.465  17.548  -8.897  1.00  0.00     0.168 HD
ENDROOT
BRANCH   1  14
HETATM   14  N10 42C A 401      -7.322  18.457  -3.527  1.00  0.00    -0.374 N 
HETATM   15  C11 42C A 401      -7.955  17.335  -2.797  1.00  0.00     0.150 C 
HETATM   16  C12 42C A 401      -7.691  19.888  -3.363  1.00  0.00     0.150 C 
ENDBRANCH   1  14
TORSDOF 1
ENDMDL
MODEL 12
REMARK VINA RESULT:    -2.812      1.485      3.077
REMARK INTER + INTRA:          -3.170
REMARK INTER:                  -2.967
REMARK INTRA:                  -0.204
REMARK UNBOUND:                -0.194
REMARK  1 active torsions:
REMARK  status: ('A' for Active; 'I' for Inactive)
REMARK    1  A    between atoms: C1_1  and  N10_8 
ROOT
HETATM    1  C1  42C A 401      -5.964  19.557  -4.236  1.00  0.00     0.134 A 
HETATM    2  C2  42C A 401      -6.911  18.622  -3.791  1.00  0.00     0.122 A 
HETATM    3  C3  42C A 401      -7.937  19.114  -2.896  1.00  0.00     0.138 A 
HETATM    4  C5  42C A 401      -7.052  21.162  -2.986  1.00  0.00     0.183 A 
HETATM    5  C8  42C A 401      -8.312  16.983  -3.203  1.00  0.00     0.182 A 
HETATM    6  N6  42C A 401      -6.025  20.845  -3.834  1.00  0.00    -0.337 N 
ATOM      7  H6  42C A 401      -5.345  21.540  -4.143  1.00  0.00     0.168 HD
HETATM    8  N4  42C A 401      -8.030  20.402  -2.472  1.00  0.00    -0.337 N 
ATOM      9  H4  42C A 401      -8.754  20.748  -1.843  1.00  0.00     0.168 HD
HETATM   10  N9  42C A 401      -8.803  18.060  -2.544  1.00  0.00    -0.337 N 
HETATM   11  N7  42C A 401      -7.174  17.259  -3.968  1.00  0.00    -0.346 N 
ATOM     12  H7  42C A 401      -6.643  16.601  -4.538  1.00  0.00     0.167 HD
HETATM   13  H   42C A 401      -9.589  18.098  -1.953  1.00  0.00     0.168 HD
ENDROOT
BRANCH   1  14
HETATM   14  N10 42C A 401      -4.907  19.167  -5.123  1.00  0.00    -0.374 N 
HETATM   15  C11 42C A 401      -3.787  18.367  -4.578  1.00  0.00     0.150 C 
HETATM   16  C12 42C A 401      -5.005  19.638  -6.529  1.00  0.00     0.150 C 
ENDBRANCH   1  14
TORSDOF 1
ENDMDL
MODEL 13
REMARK VINA RESULT:    -2.796      1.166      3.466
REMARK INTER + INTRA:          -3.153
REMARK INTER:                  -2.994
REMARK INTRA:                  -0.159
REMARK UNBOUND:                -0.194
REMARK  1 active torsions:
REMARK  status: ('A' for Active; 'I' for Inactive)
REMARK    1  A    between atoms: C1_1  and  N10_8 
ROOT
HETATM    1  C1  42C A 401      -7.375  18.713  -3.698  1.00  0.00     0.134 A 
HETATM    2  C2  42C A 401      -7.682  18.167  -4.953  1.00  0.00     0.122 A 
HETATM    3  C3  42C A 401      -8.495  16.969  -4.958  1.00  0.00     0.138 A 
HETATM    4  C5  42C A 401      -8.581  17.003  -2.726  1.00  0.00     0.183 A 
HETATM    5  C8  42C A 401      -8.056  17.462  -7.041  1.00  0.00     0.182 A 
HETATM    6  N6  42C A 401      -7.823  18.131  -2.564  1.00  0.00    -0.337 N 
ATOM      7  H6  42C A 401      -7.609  18.510  -1.642  1.00  0.00     0.168 HD
HETATM    8  N4  42C A 401      -8.965  16.357  -3.838  1.00  0.00    -0.337 N 
ATOM      9  H4  42C A 401      -9.538  15.514  -3.843  1.00  0.00     0.168 HD
HETATM   10  N9  42C A 401      -8.713  16.550  -6.286  1.00  0.00    -0.337 N 
HETATM   11  N7  42C A 401      -7.415  18.457  -6.295  1.00  0.00    -0.346 N 
ATOM     12  H7  42C A 401      -6.865  19.237  -6.657  1.00  0.00     0.167 HD
HETATM   13  H   42C A 401      -9.227  15.770  -6.595  1.00  0.00     0.168 HD
ENDROOT
BRANCH   1  14
HETATM   14  N10 42C A 401      -6.574  19.897  -3.587  1.00  0.00    -0.374 N 
HETATM   15  C11 42C A 401      -5.170  19.846  -4.055  1.00  0.00     0.150 C 
HETATM   16  C12 42C A 401      -7.218  21.085  -2.968  1.00  0.00     0.150 C 
ENDBRANCH   1  14
TORSDOF 1
ENDMDL
MODEL 14
REMARK VINA RESULT:    -2.782      1.713      4.300
REMARK INTER + INTRA:          -3.138
REMARK INTER:                  -2.925
REMARK INTRA:                  -0.213
REMARK UNBOUND:                -0.194
REMARK  1 active torsions:
REMARK  status: ('A' for Active; 'I' for Inactive)
REMARK    1  A    between atoms: C1_1  and  N10_8 
ROOT
HETATM    1  C1  42C A 401      -7.131  18.398  -4.807  1.00  0.00     0.134 A 
HETATM    2  C2  42C A 401      -5.781  18.055  -4.972  1.00  0.00     0.122 A 
HETATM    3  C3  42C A 401      -5.349  17.754  -6.321  1.00  0.00     0.138 A 
HETATM    4  C5  42C A 401      -7.416  18.126  -7.080  1.00  0.00     0.183 A 
HETATM    5  C8  42C A 401      -3.608  17.536  -5.018  1.00  0.00     0.182 A 
HETATM    6  N6  42C A 401      -7.968  18.436  -5.866  1.00  0.00    -0.337 N 
ATOM      7  H6  42C A 401      -8.953  18.680  -5.768  1.00  0.00     0.168 HD
HETATM    8  N4  42C A 401      -6.161  17.783  -7.410  1.00  0.00    -0.337 N 
ATOM      9  H4  42C A 401      -5.856  17.572  -8.360  1.00  0.00     0.168 HD
HETATM   10  N9  42C A 401      -3.977  17.431  -6.317  1.00  0.00    -0.337 N 
HETATM   11  N7  42C A 401      -4.650  17.906  -4.162  1.00  0.00    -0.346 N 
ATOM     12  H7  42C A 401      -4.597  18.040  -3.152  1.00  0.00     0.167 HD
HETATM   13  H   42C A 401      -3.414  17.185  -7.086  1.00  0.00     0.168 HD
ENDROOT
BRANCH   1  14
HETATM   14  N10 42C A 401      -7.657  18.712  -3.511  1.00  0.00    -0.374 N 
HETATM   15  C11 42C A 401      -8.214  17.612  -2.690  1.00  0.00     0.150 C 
HETATM   16  C12 42C A 401      -7.633  20.142  -3.106  1.00  0.00     0.150 C 
ENDBRANCH   1  14
TORSDOF 1
ENDMDL
MODEL 15
REMARK VINA RESULT:    -2.782      1.491      2.849
REMARK INTER + INTRA:          -3.138
REMARK INTER:                  -2.938
REMARK INTRA:                  -0.200
REMARK UNBOUND:                -0.194
REMARK  1 active torsions:
REMARK  status: ('A' for Active; 'I' for Inactive)
REMARK    1  A    between atoms: C1_1  and  N10_8 
ROOT
HETATM    1  C1  42C A 401      -6.934  17.987  -4.129  1.00  0.00     0.134 A 
HETATM    2  C2  42C A 401      -7.045  19.303  -3.656  1.00  0.00     0.122 A 
HETATM    3  C3  42C A 401      -5.829  20.088  -3.634  1.00  0.00     0.138 A 
HETATM    4  C5  42C A 401      -4.681  18.358  -4.457  1.00  0.00     0.183 A 
HETATM    5  C8  42C A 401      -7.434  21.359  -2.873  1.00  0.00     0.182 A 
HETATM    6  N6  42C A 401      -5.743  17.497  -4.536  1.00  0.00    -0.337 N 
ATOM      7  H6  42C A 401      -5.640  16.543  -4.881  1.00  0.00     0.168 HD
HETATM    8  N4  42C A 401      -4.613  19.630  -4.037  1.00  0.00    -0.337 N 
ATOM      9  H4  42C A 401      -3.758  20.185  -4.023  1.00  0.00     0.168 HD
HETATM   10  N9  42C A 401      -6.106  21.377  -3.137  1.00  0.00    -0.337 N 
HETATM   11  N7  42C A 401      -8.052  20.138  -3.163  1.00  0.00    -0.346 N 
ATOM     12  H7  42C A 401      -9.037  19.904  -3.039  1.00  0.00     0.167 HD
HETATM   13  H   42C A 401      -5.477  22.122  -3.010  1.00  0.00     0.168 HD
ENDROOT
BRANCH   1  14
HETATM   14  N10 42C A 401      -8.080  17.128  -4.188  1.00  0.00    -0.374 N 
HETATM   15  C11 42C A 401      -8.687  16.849  -5.510  1.00  0.00     0.150 C 
HETATM   16  C12 42C A 401      -8.597  16.610  -2.894  1.00  0.00     0.150 C 
ENDBRANCH   1  14
TORSDOF 1
ENDMDL
MODEL 16
REMARK VINA RESULT:    -2.778      1.668      4.214
REMARK INTER + INTRA:          -3.134
REMARK INTER:                  -2.922
REMARK INTRA:                  -0.212
REMARK UNBOUND:                -0.194
REMARK  1 active torsions:
REMARK  status: ('A' for Active; 'I' for Inactive)
REMARK    1  A    between atoms: C1_1  and  N10_8 
ROOT
HETATM    1  C1  42C A 401      -7.216  17.984  -4.757  1.00  0.00     0.134 A 
HETATM    2  C2  42C A 401      -5.821  17.905  -4.877  1.00  0.00     0.122 A 
HETATM    3  C3  42C A 401      -5.295  17.715  -6.213  1.00  0.00     0.138 A 
HETATM    4  C5  42C A 401      -7.369  17.703  -7.042  1.00  0.00     0.183 A 
HETATM    5  C8  42C A 401      -3.589  17.807  -4.851  1.00  0.00     0.182 A 
HETATM    6  N6  42C A 401      -8.010  17.881  -5.846  1.00  0.00    -0.337 N 
ATOM      7  H6  42C A 401      -9.026  17.933  -5.780  1.00  0.00     0.168 HD
HETATM    8  N4  42C A 401      -6.062  17.609  -7.331  1.00  0.00    -0.337 N 
ATOM      9  H4  42C A 401      -5.691  17.476  -8.271  1.00  0.00     0.168 HD
HETATM   10  N9  42C A 401      -3.888  17.657  -6.163  1.00  0.00    -0.337 N 
HETATM   11  N7  42C A 401      -4.710  17.959  -4.029  1.00  0.00    -0.346 N 
ATOM     12  H7  42C A 401      -4.717  18.082  -3.017  1.00  0.00     0.167 HD
HETATM   13  H   42C A 401      -3.264  17.536  -6.914  1.00  0.00     0.168 HD
ENDROOT
BRANCH   1  14
HETATM   14  N10 42C A 401      -7.835  18.170  -3.477  1.00  0.00    -0.374 N 
HETATM   15  C11 42C A 401      -8.435  16.994  -2.806  1.00  0.00     0.150 C 
HETATM   16  C12 42C A 401      -7.857  19.555  -2.938  1.00  0.00     0.150 C 
ENDBRANCH   1  14
TORSDOF 1
ENDMDL
MODEL 17
REMARK VINA RESULT:    -2.774      1.667      4.204
REMARK INTER + INTRA:          -3.130
REMARK INTER:                  -2.916
REMARK INTRA:                  -0.214
REMARK UNBOUND:                -0.194
REMARK  1 active torsions:
REMARK  status: ('A' for Active; 'I' for Inactive)
REMARK    1  A    between atoms: C1_1  and  N10_8 
ROOT
HETATM    1  C1  42C A 401      -7.219  18.096  -4.828  1.00  0.00     0.134 A 
HETATM    2  C2  42C A 401      -5.832  17.937  -4.954  1.00  0.00     0.122 A 
HETATM    3  C3  42C A 401      -5.328  17.678  -6.287  1.00  0.00     0.138 A 
HETATM    4  C5  42C A 401      -7.405  17.757  -7.102  1.00  0.00     0.183 A 
HETATM    5  C8  42C A 401      -3.608  17.715  -4.940  1.00  0.00     0.182 A 
HETATM    6  N6  42C A 401      -8.026  18.006  -5.908  1.00  0.00    -0.337 N 
ATOM      7  H6  42C A 401      -9.038  18.116  -5.837  1.00  0.00     0.168 HD
HETATM    8  N4  42C A 401      -6.108  17.583  -7.396  1.00  0.00    -0.337 N 
ATOM      9  H4  42C A 401      -5.752  17.402  -8.335  1.00  0.00     0.168 HD
HETATM   10  N9  42C A 401      -3.926  17.544  -6.245  1.00  0.00    -0.337 N 
HETATM   11  N7  42C A 401      -4.713  17.953  -4.115  1.00  0.00    -0.346 N 
ATOM     12  H7  42C A 401      -4.704  18.106  -3.107  1.00  0.00     0.167 HD
HETATM   13  H   42C A 401      -3.315  17.366  -6.995  1.00  0.00     0.168 HD
ENDROOT
BRANCH   1  14
HETATM   14  N10 42C A 401      -7.816  18.353  -3.550  1.00  0.00    -0.374 N 
HETATM   15  C11 42C A 401      -7.798  19.739  -3.028  1.00  0.00     0.150 C 
HETATM   16  C12 42C A 401      -8.379  17.183  -2.826  1.00  0.00     0.150 C 
ENDBRANCH   1  14
TORSDOF 1
ENDMDL
MODEL 18
REMARK VINA RESULT:    -2.765      1.686      4.169
REMARK INTER + INTRA:          -3.120
REMARK INTER:                  -2.907
REMARK INTRA:                  -0.213
REMARK UNBOUND:                -0.194
REMARK  1 active torsions:
REMARK  status: ('A' for Active; 'I' for Inactive)
REMARK    1  A    between atoms: C1_1  and  N10_8 
ROOT
HETATM    1  C1  42C A 401      -7.204  17.998  -4.754  1.00  0.00     0.134 A 
HETATM    2  C2  42C A 401      -5.807  17.920  -4.856  1.00  0.00     0.122 A 
HETATM    3  C3  42C A 401      -5.264  17.709  -6.182  1.00  0.00     0.138 A 
HETATM    4  C5  42C A 401      -7.328  17.680  -7.036  1.00  0.00     0.183 A 
HETATM    5  C8  42C A 401      -3.575  17.826  -4.802  1.00  0.00     0.182 A 
HETATM    6  N6  42C A 401      -7.984  17.876  -5.850  1.00  0.00    -0.337 N 
ATOM      7  H6  42C A 401      -9.001  17.928  -5.798  1.00  0.00     0.168 HD
HETATM    8  N4  42C A 401      -6.018  17.584  -7.307  1.00  0.00    -0.337 N 
ATOM      9  H4  42C A 401      -5.635  17.437  -8.241  1.00  0.00     0.168 HD
HETATM   10  N9  42C A 401      -3.858  17.655  -6.115  1.00  0.00    -0.337 N 
HETATM   11  N7  42C A 401      -4.706  17.988  -3.996  1.00  0.00    -0.346 N 
ATOM     12  H7  42C A 401      -4.725  18.128  -2.985  1.00  0.00     0.167 HD
HETATM   13  H   42C A 401      -3.224  17.523  -6.856  1.00  0.00     0.168 HD
ENDROOT
BRANCH   1  14
HETATM   14  N10 42C A 401      -7.838  18.202  -3.484  1.00  0.00    -0.374 N 
HETATM   15  C11 42C A 401      -7.851  19.569  -2.914  1.00  0.00     0.150 C 
HETATM   16  C12 42C A 401      -8.405  17.001  -2.818  1.00  0.00     0.150 C 
ENDBRANCH   1  14
TORSDOF 1
ENDMDL
MODEL 19
REMARK VINA RESULT:    -2.752      1.458      3.168
REMARK INTER + INTRA:          -3.107
REMARK INTER:                  -2.905
REMARK INTRA:                  -0.201
REMARK UNBOUND:                -0.194
REMARK  1 active torsions:
REMARK  status: ('A' for Active; 'I' for Inactive)
REMARK    1  A    between atoms: C1_1  and  N10_8 
ROOT
HETATM    1  C1  42C A 401      -6.096  19.694  -4.232  1.00  0.00     0.134 A 
HETATM    2  C2  42C A 401      -6.977  18.713  -3.754  1.00  0.00     0.122 A 
HETATM    3  C3  42C A 401      -7.949  19.138  -2.768  1.00  0.00     0.138 A 
HETATM    4  C5  42C A 401      -7.137  21.218  -2.848  1.00  0.00     0.183 A 
HETATM    5  C8  42C A 401      -8.279  17.008  -3.125  1.00  0.00     0.182 A 
HETATM    6  N6  42C A 401      -6.166  20.964  -3.779  1.00  0.00    -0.337 N 
ATOM      7  H6  42C A 401      -5.534  21.692  -4.112  1.00  0.00     0.168 HD
HETATM    8  N4  42C A 401      -8.051  20.408  -2.291  1.00  0.00    -0.337 N 
ATOM      9  H4  42C A 401      -8.736  20.707  -1.598  1.00  0.00     0.168 HD
HETATM   10  N9  42C A 401      -8.753  18.044  -2.393  1.00  0.00    -0.337 N 
HETATM   11  N7  42C A 401      -7.209  17.349  -3.960  1.00  0.00    -0.346 N 
ATOM     12  H7  42C A 401      -6.702  16.729  -4.591  1.00  0.00     0.167 HD
HETATM   13  H   42C A 401      -9.493  18.035  -1.744  1.00  0.00     0.168 HD
ENDROOT
BRANCH   1  14
HETATM   14  N10 42C A 401      -5.096  19.371  -5.207  1.00  0.00    -0.374 N 
HETATM   15  C11 42C A 401      -5.306  19.811  -6.606  1.00  0.00     0.150 C 
HETATM   16  C12 42C A 401      -3.931  18.578  -4.736  1.00  0.00     0.150 C 
ENDBRANCH   1  14
TORSDOF 1
ENDMDL
MODEL 20
REMARK VINA RESULT:    -2.747      1.684      4.295
REMARK INTER + INTRA:          -3.101
REMARK INTER:                  -2.885
REMARK INTRA:                  -0.215
REMARK UNBOUND:                -0.194
REMARK  1 active torsions:
REMARK  status: ('A' for Active; 'I' for Inactive)
REMARK    1  A    between atoms: C1_1  and  N10_8 
ROOT
HETATM    1  C1  42C A 401      -7.123  18.450  -4.889  1.00  0.00     0.134 A 
HETATM    2  C2  42C A 401      -5.796  18.030  -5.057  1.00  0.00     0.122 A 
HETATM    3  C3  42C A 401      -5.405  17.636  -6.395  1.00  0.00     0.138 A 
HETATM    4  C5  42C A 401      -7.465  18.073  -7.139  1.00  0.00     0.183 A 
HETATM    5  C8  42C A 401      -3.653  17.398  -5.112  1.00  0.00     0.182 A 
HETATM    6  N6  42C A 401      -7.978  18.474  -5.935  1.00  0.00    -0.337 N 
ATOM      7  H6  42C A 401      -8.948  18.774  -5.833  1.00  0.00     0.168 HD
HETATM    8  N4  42C A 401      -6.236  17.650  -7.471  1.00  0.00    -0.337 N 
ATOM      9  H4  42C A 401      -5.960  17.373  -8.413  1.00  0.00     0.168 HD
HETATM   10  N9  42C A 401      -4.052  17.244  -6.396  1.00  0.00    -0.337 N 
HETATM   11  N7  42C A 401      -4.659  17.866  -4.259  1.00  0.00    -0.346 N 
ATOM     12  H7  42C A 401      -4.579  18.050  -3.259  1.00  0.00     0.167 HD
HETATM   13  H   42C A 401      -3.517  16.930  -7.160  1.00  0.00     0.168 HD
ENDROOT
BRANCH   1  14
HETATM   14  N10 42C A 401      -7.608  18.858  -3.602  1.00  0.00    -0.374 N 
HETATM   15  C11 42C A 401      -7.485  20.283  -3.221  1.00  0.00     0.150 C 
HETATM   16  C12 42C A 401      -8.167  17.793  -2.729  1.00  0.00     0.150 C 
ENDBRANCH   1  14
TORSDOF 1
ENDMDL
MODEL 21
REMARK VINA RESULT:    -2.681      1.879      3.350
REMARK INTER + INTRA:          -3.031
REMARK INTER:                  -2.816
REMARK INTRA:                  -0.215
REMARK UNBOUND:                -0.194
REMARK  1 active torsions:
REMARK  status: ('A' for Active; 'I' for Inactive)
REMARK    1  A    between atoms: C1_1  and  N10_8 
ROOT
HETATM    1  C1  42C A 401      -6.310  18.085  -5.466  1.00  0.00     0.134 A 
HETATM    2  C2  42C A 401      -7.156  17.633  -4.443  1.00  0.00     0.122 A 
HETATM    3  C3  42C A 401      -8.453  17.131  -4.848  1.00  0.00     0.138 A 
HETATM    4  C5  42C A 401      -7.959  17.545  -6.987  1.00  0.00     0.183 A 
HETATM    5  C8  42C A 401      -8.346  16.967  -2.672  1.00  0.00     0.182 A 
HETATM    6  N6  42C A 401      -6.706  18.047  -6.757  1.00  0.00    -0.337 N 
ATOM      7  H6  42C A 401      -6.107  18.372  -7.516  1.00  0.00     0.168 HD
HETATM    8  N4  42C A 401      -8.884  17.075  -6.137  1.00  0.00    -0.337 N 
ATOM      9  H4  42C A 401      -9.797  16.721  -6.422  1.00  0.00     0.168 HD
HETATM   10  N9  42C A 401      -9.177  16.719  -3.713  1.00  0.00    -0.337 N 
HETATM   11  N7  42C A 401      -7.117  17.519  -3.050  1.00  0.00    -0.346 N 
ATOM     12  H7  42C A 401      -6.348  17.784  -2.434  1.00  0.00     0.167 HD
HETATM   13  H   42C A 401     -10.083  16.337  -3.682  1.00  0.00     0.168 HD
ENDROOT
BRANCH   1  14
HETATM   14  N10 42C A 401      -5.007  18.603  -5.167  1.00  0.00    -0.374 N 
HETATM   15  C11 42C A 401      -3.886  17.647  -5.009  1.00  0.00     0.150 C 
HETATM   16  C12 42C A 401      -4.893  20.075  -5.000  1.00  0.00     0.150 C 
ENDBRANCH   1  14
TORSDOF 1
ENDMDL
MODEL 22
REMARK VINA RESULT:    -2.667      1.357      1.961
REMARK INTER + INTRA:          -3.017
REMARK INTER:                  -2.824
REMARK INTRA:                  -0.193
REMARK UNBOUND:                -0.194
REMARK  1 active torsions:
REMARK  status: ('A' for Active; 'I' for Inactive)
REMARK    1  A    between atoms: C1_1  and  N10_8 
ROOT
HETATM    1  C1  42C A 401      -6.630  18.721  -4.664  1.00  0.00     0.134 A 
HETATM    2  C2  42C A 401      -6.332  20.047  -4.318  1.00  0.00     0.122 A 
HETATM    3  C3  42C A 401      -7.077  20.611  -3.212  1.00  0.00     0.138 A 
HETATM    4  C5  42C A 401      -8.191  18.691  -2.966  1.00  0.00     0.183 A 
HETATM    5  C8  42C A 401      -5.710  22.158  -3.929  1.00  0.00     0.182 A 
HETATM    6  N6  42C A 401      -7.570  18.025  -3.988  1.00  0.00    -0.337 N 
ATOM      7  H6  42C A 401      -7.804  17.061  -4.225  1.00  0.00     0.168 HD
HETATM    8  N4  42C A 401      -8.028  19.942  -2.508  1.00  0.00    -0.337 N 
ATOM      9  H4  42C A 401      -8.551  20.340  -1.728  1.00  0.00     0.168 HD
HETATM   10  N9  42C A 401      -6.663  21.940  -2.992  1.00  0.00    -0.337 N 
HETATM   11  N7  42C A 401      -5.470  21.056  -4.758  1.00  0.00    -0.346 N 
ATOM     12  H7  42C A 401      -4.801  21.001  -5.526  1.00  0.00     0.167 HD
HETATM   13  H   42C A 401      -6.992  22.568  -2.310  1.00  0.00     0.168 HD
ENDROOT
BRANCH   1  14
HETATM   14  N10 42C A 401      -5.949  18.072  -5.746  1.00  0.00    -0.374 N 
HETATM   15  C11 42C A 401      -6.708  17.776  -6.982  1.00  0.00     0.150 C 
HETATM   16  C12 42C A 401      -4.524  17.712  -5.521  1.00  0.00     0.150 C 
ENDBRANCH   1  14
TORSDOF 1
ENDMDL
MODEL 23
REMARK VINA RESULT:    -2.667      1.345      1.660
REMARK INTER + INTRA:          -3.016
REMARK INTER:                  -2.822
REMARK INTRA:                  -0.194
REMARK UNBOUND:                -0.194
REMARK  1 active torsions:
REMARK  status: ('A' for Active; 'I' for Inactive)
REMARK    1  A    between atoms: C1_1  and  N10_8 
ROOT
HETATM    1  C1  42C A 401      -6.643  18.692  -4.645  1.00  0.00     0.134 A 
HETATM    2  C2  42C A 401      -6.343  20.027  -4.337  1.00  0.00     0.122 A 
HETATM    3  C3  42C A 401      -7.084  20.623  -3.244  1.00  0.00     0.138 A 
HETATM    4  C5  42C A 401      -8.199  18.712  -2.942  1.00  0.00     0.183 A 
HETATM    5  C8  42C A 401      -5.718  22.148  -4.008  1.00  0.00     0.182 A 
HETATM    6  N6  42C A 401      -7.582  18.017  -3.947  1.00  0.00    -0.337 N 
ATOM      7  H6  42C A 401      -7.817  17.047  -4.156  1.00  0.00     0.168 HD
HETATM    8  N4  42C A 401      -8.034  19.974  -2.519  1.00  0.00    -0.337 N 
ATOM      9  H4  42C A 401      -8.554  20.394  -1.749  1.00  0.00     0.168 HD
HETATM   10  N9  42C A 401      -6.668  21.957  -3.062  1.00  0.00    -0.337 N 
HETATM   11  N7  42C A 401      -5.481  21.024  -4.806  1.00  0.00    -0.346 N 
ATOM     12  H7  42C A 401      -4.814  20.946  -5.574  1.00  0.00     0.167 HD
HETATM   13  H   42C A 401      -6.995  22.604  -2.397  1.00  0.00     0.168 HD
ENDROOT
BRANCH   1  14
HETATM   14  N10 42C A 401      -5.965  18.014  -5.711  1.00  0.00    -0.374 N 
HETATM   15  C11 42C A 401      -4.534  17.677  -5.536  1.00  0.00     0.150 C 
HETATM   16  C12 42C A 401      -6.758  17.733  -6.937  1.00  0.00     0.150 C 
ENDBRANCH   1  14
TORSDOF 1
ENDMDL
MODEL 24
REMARK VINA RESULT:    -2.658      1.574      3.536
REMARK INTER + INTRA:          -3.006
REMARK INTER:                  -2.791
REMARK INTRA:                  -0.215
REMARK UNBOUND:                -0.194
REMARK  1 active torsions:
REMARK  status: ('A' for Active; 'I' for Inactive)
REMARK    1  A    between atoms: C1_1  and  N10_8 
ROOT
HETATM    1  C1  42C A 401      -6.604  18.461  -4.880  1.00  0.00     0.134 A 
HETATM    2  C2  42C A 401      -7.447  17.684  -4.071  1.00  0.00     0.122 A 
HETATM    3  C3  42C A 401      -8.462  16.907  -4.751  1.00  0.00     0.138 A 
HETATM    4  C5  42C A 401      -7.756  17.685  -6.722  1.00  0.00     0.183 A 
HETATM    5  C8  42C A 401      -8.677  16.523  -2.611  1.00  0.00     0.182 A 
HETATM    6  N6  42C A 401      -6.752  18.470  -6.223  1.00  0.00    -0.337 N 
ATOM      7  H6  42C A 401      -6.152  19.029  -6.829  1.00  0.00     0.168 HD
HETATM    8  N4  42C A 401      -8.639  16.890  -6.099  1.00  0.00    -0.337 N 
ATOM      9  H4  42C A 401      -9.354  16.342  -6.577  1.00  0.00     0.168 HD
HETATM   10  N9  42C A 401      -9.219  16.188  -3.806  1.00  0.00    -0.337 N 
HETATM   11  N7  42C A 401      -7.609  17.422  -2.707  1.00  0.00    -0.346 N 
ATOM     12  H7  42C A 401      -7.061  17.808  -1.939  1.00  0.00     0.167 HD
HETATM   13  H   42C A 401      -9.973  15.578  -3.975  1.00  0.00     0.168 HD
ENDROOT
BRANCH   1  14
HETATM   14  N10 42C A 401      -5.569  19.267  -4.302  1.00  0.00    -0.374 N 
HETATM   15  C11 42C A 401      -4.228  18.668  -4.116  1.00  0.00     0.150 C 
HETATM   16  C12 42C A 401      -5.943  20.648  -3.897  1.00  0.00     0.150 C 
ENDBRANCH   1  14
TORSDOF 1
ENDMDL
MODEL 25
REMARK VINA RESULT:    -2.643      1.563      3.643
REMARK INTER + INTRA:          -2.991
REMARK INTER:                  -2.778
REMARK INTRA:                  -0.214
REMARK UNBOUND:                -0.194
REMARK  1 active torsions:
REMARK  status: ('A' for Active; 'I' for Inactive)
REMARK    1  A    between atoms: C1_1  and  N10_8 
ROOT
HETATM    1  C1  42C A 401      -6.680  18.479  -4.861  1.00  0.00     0.134 A 
HETATM    2  C2  42C A 401      -7.499  17.662  -4.066  1.00  0.00     0.122 A 
HETATM    3  C3  42C A 401      -8.473  16.848  -4.762  1.00  0.00     0.138 A 
HETATM    4  C5  42C A 401      -7.779  17.669  -6.720  1.00  0.00     0.183 A 
HETATM    5  C8  42C A 401      -8.695  16.441  -2.627  1.00  0.00     0.182 A 
HETATM    6  N6  42C A 401      -6.814  18.492  -6.205  1.00  0.00    -0.337 N 
ATOM      7  H6  42C A 401      -6.231  19.080  -6.800  1.00  0.00     0.168 HD
HETATM    8  N4  42C A 401      -8.635  16.833  -6.112  1.00  0.00    -0.337 N 
ATOM      9  H4  42C A 401      -9.321  16.259  -6.602  1.00  0.00     0.168 HD
HETATM   10  N9  42C A 401      -9.210  16.091  -3.830  1.00  0.00    -0.337 N 
HETATM   11  N7  42C A 401      -7.665  17.384  -2.706  1.00  0.00    -0.346 N 
ATOM     12  H7  42C A 401      -7.141  17.786  -1.929  1.00  0.00     0.167 HD
HETATM   13  H   42C A 401      -9.935  15.452  -4.012  1.00  0.00     0.168 HD
ENDROOT
BRANCH   1  14
HETATM   14  N10 42C A 401      -5.686  19.324  -4.266  1.00  0.00    -0.374 N 
HETATM   15  C11 42C A 401      -6.062  20.710  -3.905  1.00  0.00     0.150 C 
HETATM   16  C12 42C A 401      -4.329  18.742  -4.093  1.00  0.00     0.150 C 
ENDBRANCH   1  14
TORSDOF 1
ENDMDL
MODEL 26
REMARK VINA RESULT:    -2.594      1.338      2.899
REMARK INTER + INTRA:          -2.939
REMARK INTER:                  -2.726
REMARK INTRA:                  -0.213
REMARK UNBOUND:                -0.194
REMARK  1 active torsions:
REMARK  status: ('A' for Active; 'I' for Inactive)
REMARK    1  A    between atoms: C1_1  and  N10_8 
ROOT
HETATM    1  C1  42C A 401      -5.810  19.012  -4.787  1.00  0.00     0.134 A 
HETATM    2  C2  42C A 401      -6.835  18.517  -3.967  1.00  0.00     0.122 A 
HETATM    3  C3  42C A 401      -7.543  19.487  -3.158  1.00  0.00     0.138 A 
HETATM    4  C5  42C A 401      -6.270  21.126  -3.984  1.00  0.00     0.183 A 
HETATM    5  C8  42C A 401      -8.421  17.531  -2.739  1.00  0.00     0.182 A 
HETATM    6  N6  42C A 401      -5.514  20.330  -4.803  1.00  0.00    -0.337 N 
ATOM      7  H6  42C A 401      -4.771  20.710  -5.390  1.00  0.00     0.168 HD
HETATM    8  N4  42C A 401      -7.275  20.820  -3.150  1.00  0.00    -0.337 N 
ATOM      9  H4  42C A 401      -7.775  21.503  -2.581  1.00  0.00     0.168 HD
HETATM   10  N9  42C A 401      -8.535  18.836  -2.398  1.00  0.00    -0.337 N 
HETATM   11  N7  42C A 401      -7.414  17.278  -3.677  1.00  0.00    -0.346 N 
ATOM     12  H7  42C A 401      -7.155  16.373  -4.071  1.00  0.00     0.167 HD
HETATM   13  H   42C A 401      -9.168  19.239  -1.761  1.00  0.00     0.168 HD
ENDROOT
BRANCH   1  14
HETATM   14  N10 42C A 401      -5.048  18.131  -5.623  1.00  0.00    -0.374 N 
HETATM   15  C11 42C A 401      -3.780  17.577  -5.096  1.00  0.00     0.150 C 
HETATM   16  C12 42C A 401      -5.583  17.872  -6.986  1.00  0.00     0.150 C 
ENDBRANCH   1  14
TORSDOF 1
ENDMDL
MODEL 27
REMARK VINA RESULT:    -2.591      1.328      3.065
REMARK INTER + INTRA:          -2.937
REMARK INTER:                  -2.721
REMARK INTRA:                  -0.215
REMARK UNBOUND:                -0.194
REMARK  1 active torsions:
REMARK  status: ('A' for Active; 'I' for Inactive)
REMARK    1  A    between atoms: C1_1  and  N10_8 
ROOT
HETATM    1  C1  42C A 401      -5.825  19.029  -4.793  1.00  0.00     0.134 A 
HETATM    2  C2  42C A 401      -6.851  18.521  -3.983  1.00  0.00     0.122 A 
HETATM    3  C3  42C A 401      -7.570  19.479  -3.169  1.00  0.00     0.138 A 
HETATM    4  C5  42C A 401      -6.302  21.132  -3.974  1.00  0.00     0.183 A 
HETATM    5  C8  42C A 401      -8.437  17.513  -2.773  1.00  0.00     0.182 A 
HETATM    6  N6  42C A 401      -5.537  20.348  -4.796  1.00  0.00    -0.337 N 
ATOM      7  H6  42C A 401      -4.794  20.738  -5.375  1.00  0.00     0.168 HD
HETATM    8  N4  42C A 401      -7.309  20.813  -3.147  1.00  0.00    -0.337 N 
ATOM      9  H4  42C A 401      -7.816  21.488  -2.575  1.00  0.00     0.168 HD
HETATM   10  N9  42C A 401      -8.561  18.815  -2.420  1.00  0.00    -0.337 N 
HETATM   11  N7  42C A 401      -7.425  17.275  -3.708  1.00  0.00    -0.346 N 
ATOM     12  H7  42C A 401      -7.158  16.375  -4.108  1.00  0.00     0.167 HD
HETATM   13  H   42C A 401      -9.199  19.208  -1.783  1.00  0.00     0.168 HD
ENDROOT
BRANCH   1  14
HETATM   14  N10 42C A 401      -5.054  18.160  -5.634  1.00  0.00    -0.374 N 
HETATM   15  C11 42C A 401      -5.564  17.855  -6.990  1.00  0.00     0.150 C 
HETATM   16  C12 42C A 401      -3.806  17.600  -5.053  1.00  0.00     0.150 C 
ENDBRANCH   1  14
TORSDOF 1
ENDMDL
MODEL 28
REMARK VINA RESULT:    -2.483      2.117      3.793
REMARK INTER + INTRA:          -2.821
REMARK INTER:                  -2.668
REMARK INTRA:                  -0.153
REMARK UNBOUND:                -0.194
REMARK  1 active torsions:
REMARK  status: ('A' for Active; 'I' for Inactive)
REMARK    1  A    between atoms: C1_1  and  N10_8 
ROOT
HETATM    1  C1  42C A 401      -5.244  18.036  -4.902  1.00  0.00     0.134 A 
HETATM    2  C2  42C A 401      -6.057  17.962  -6.044  1.00  0.00     0.122 A 
HETATM    3  C3  42C A 401      -7.476  17.788  -5.819  1.00  0.00     0.138 A 
HETATM    4  C5  42C A 401      -7.139  17.780  -3.611  1.00  0.00     0.183 A 
HETATM    5  C8  42C A 401      -7.168  17.869  -7.980  1.00  0.00     0.182 A 
HETATM    6  N6  42C A 401      -5.781  17.944  -3.666  1.00  0.00    -0.337 N 
ATOM      7  H6  42C A 401      -5.209  17.992  -2.823  1.00  0.00     0.168 HD
HETATM    8  N4  42C A 401      -8.052  17.693  -4.591  1.00  0.00    -0.337 N 
ATOM      9  H4  42C A 401      -9.052  17.571  -4.433  1.00  0.00     0.168 HD
HETATM   10  N9  42C A 401      -8.148  17.733  -7.056  1.00  0.00    -0.337 N 
HETATM   11  N7  42C A 401      -5.889  18.009  -7.431  1.00  0.00    -0.346 N 
ATOM     12  H7  42C A 401      -5.011  18.121  -7.940  1.00  0.00     0.167 HD
HETATM   13  H   42C A 401      -9.113  17.621  -7.213  1.00  0.00     0.168 HD
ENDROOT
BRANCH   1  14
HETATM   14  N10 42C A 401      -3.826  18.206  -5.019  1.00  0.00    -0.374 N 
HETATM   15  C11 42C A 401      -3.221  19.461  -4.517  1.00  0.00     0.150 C 
HETATM   16  C12 42C A 401      -3.072  17.108  -5.679  1.00  0.00     0.150 C 
ENDBRANCH   1  14
TORSDOF 1
ENDMDL
MODEL 29
REMARK VINA RESULT:    -2.450      2.064      3.762
REMARK INTER + INTRA:          -2.786
REMARK INTER:                  -2.652
REMARK INTRA:                  -0.134
REMARK UNBOUND:                -0.194
REMARK  1 active torsions:
REMARK  status: ('A' for Active; 'I' for Inactive)
REMARK    1  A    between atoms: C1_1  and  N10_8 
ROOT
HETATM    1  C1  42C A 401      -5.362  18.150  -4.736  1.00  0.00     0.134 A 
HETATM    2  C2  42C A 401      -6.137  17.995  -5.895  1.00  0.00     0.122 A 
HETATM    3  C3  42C A 401      -7.534  17.667  -5.701  1.00  0.00     0.138 A 
HETATM    4  C5  42C A 401      -7.245  17.684  -3.487  1.00  0.00     0.183 A 
HETATM    5  C8  42C A 401      -7.190  17.793  -7.855  1.00  0.00     0.182 A 
HETATM    6  N6  42C A 401      -5.912  17.994  -3.512  1.00  0.00    -0.337 N 
ATOM      7  H6  42C A 401      -5.366  18.100  -2.657  1.00  0.00     0.168 HD
HETATM    8  N4  42C A 401      -8.122  17.504  -4.486  1.00  0.00    -0.337 N 
ATOM      9  H4  42C A 401      -9.106  17.274  -4.351  1.00  0.00     0.168 HD
HETATM   10  N9  42C A 401      -8.169  17.547  -6.953  1.00  0.00    -0.337 N 
HETATM   11  N7  42C A 401      -5.945  18.067  -7.278  1.00  0.00    -0.346 N 
ATOM     12  H7  42C A 401      -5.075  18.276  -7.767  1.00  0.00     0.167 HD
HETATM   13  H   42C A 401      -9.113  17.333  -7.131  1.00  0.00     0.168 HD
ENDROOT
BRANCH   1  14
HETATM   14  N10 42C A 401      -3.968  18.473  -4.821  1.00  0.00    -0.374 N 
HETATM   15  C11 42C A 401      -3.068  17.534  -5.531  1.00  0.00     0.150 C 
HETATM   16  C12 42C A 401      -3.527  19.723  -4.149  1.00  0.00     0.150 C 
ENDBRANCH   1  14
TORSDOF 1
ENDMDL
MODEL 30
REMARK VINA RESULT:    -2.434      1.508      3.464
REMARK INTER + INTRA:          -2.769
REMARK INTER:                  -2.689
REMARK INTRA:                  -0.080
REMARK UNBOUND:                -0.194
REMARK  1 active torsions:
REMARK  status: ('A' for Active; 'I' for Inactive)
REMARK    1  A    between atoms: C1_1  and  N10_8 
ROOT
HETATM    1  C1  42C A 401      -7.653  19.237  -3.843  1.00  0.00     0.134 A 
HETATM    2  C2  42C A 401      -6.680  19.686  -4.748  1.00  0.00     0.122 A 
HETATM    3  C3  42C A 401      -6.070  20.968  -4.460  1.00  0.00     0.138 A 
HETATM    4  C5  42C A 401      -7.329  21.170  -2.626  1.00  0.00     0.183 A 
HETATM    5  C8  42C A 401      -5.163  20.218  -6.301  1.00  0.00     0.182 A 
HETATM    6  N6  42C A 401      -7.991  19.980  -2.767  1.00  0.00    -0.337 N 
ATOM      7  H6  42C A 401      -8.697  19.672  -2.098  1.00  0.00     0.168 HD
HETATM    8  N4  42C A 401      -6.383  21.741  -3.386  1.00  0.00    -0.337 N 
ATOM      9  H4  42C A 401      -5.952  22.643  -3.184  1.00  0.00     0.168 HD
HETATM   10  N9  42C A 401      -5.120  21.274  -5.455  1.00  0.00    -0.337 N 
HETATM   11  N7  42C A 401      -6.084  19.232  -5.929  1.00  0.00    -0.346 N 
ATOM     12  H7  42C A 401      -6.281  18.360  -6.419  1.00  0.00     0.167 HD
HETATM   13  H   42C A 401      -4.553  22.075  -5.520  1.00  0.00     0.168 HD
ENDROOT
BRANCH   1  14
HETATM   14  N10 42C A 401      -8.317  17.981  -4.042  1.00  0.00    -0.374 N 
HETATM   15  C11 42C A 401      -8.979  17.731  -5.342  1.00  0.00     0.150 C 
HETATM   16  C12 42C A 401      -8.318  17.036  -2.895  1.00  0.00     0.150 C 
ENDBRANCH   1  14
TORSDOF 1
ENDMDL
MODEL 31
REMARK VINA RESULT:    -2.430      2.021      3.626
REMARK INTER + INTRA:          -2.765
REMARK INTER:                  -2.617
REMARK INTRA:                  -0.149
REMARK UNBOUND:                -0.194
REMARK  1 active torsions:
REMARK  status: ('A' for Active; 'I' for Inactive)
REMARK    1  A    between atoms: C1_1  and  N10_8 
ROOT
HETATM    1  C1  42C A 401      -5.377  17.988  -5.726  1.00  0.00     0.134 A 
HETATM    2  C2  42C A 401      -6.393  17.808  -4.776  1.00  0.00     0.122 A 
HETATM    3  C3  42C A 401      -7.749  17.746  -5.281  1.00  0.00     0.138 A 
HETATM    4  C5  42C A 401      -6.999  18.021  -7.367  1.00  0.00     0.183 A 
HETATM    5  C8  42C A 401      -7.855  17.519  -3.111  1.00  0.00     0.182 A 
HETATM    6  N6  42C A 401      -5.672  18.099  -7.040  1.00  0.00    -0.337 N 
ATOM      7  H6  42C A 401      -4.949  18.232  -7.747  1.00  0.00     0.168 HD
HETATM    8  N4  42C A 401      -8.083  17.851  -6.595  1.00  0.00    -0.337 N 
ATOM      9  H4  42C A 401      -9.038  17.806  -6.950  1.00  0.00     0.168 HD
HETATM   10  N9  42C A 401      -8.645  17.563  -4.209  1.00  0.00    -0.337 N 
HETATM   11  N7  42C A 401      -6.491  17.663  -3.389  1.00  0.00    -0.346 N 
ATOM     12  H7  42C A 401      -5.724  17.662  -2.716  1.00  0.00     0.167 HD
HETATM   13  H   42C A 401      -9.625  17.485  -4.250  1.00  0.00     0.168 HD
ENDROOT
BRANCH   1  14
HETATM   14  N10 42C A 401      -4.002  18.065  -5.326  1.00  0.00    -0.374 N 
HETATM   15  C11 42C A 401      -3.078  16.995  -5.767  1.00  0.00     0.150 C 
HETATM   16  C12 42C A 401      -3.620  19.209  -4.458  1.00  0.00     0.150 C 
ENDBRANCH   1  14
TORSDOF 1
ENDMDL
MODEL 32
REMARK VINA RESULT:    -2.412      1.995      3.640
REMARK INTER + INTRA:          -2.746
REMARK INTER:                  -2.575
REMARK INTRA:                  -0.172
REMARK UNBOUND:                -0.194
REMARK  1 active torsions:
REMARK  status: ('A' for Active; 'I' for Inactive)
REMARK    1  A    between atoms: C1_1  and  N10_8 
ROOT
HETATM    1  C1  42C A 401      -5.336  18.008  -5.742  1.00  0.00     0.134 A 
HETATM    2  C2  42C A 401      -6.382  17.861  -4.818  1.00  0.00     0.122 A 
HETATM    3  C3  42C A 401      -7.723  17.802  -5.361  1.00  0.00     0.138 A 
HETATM    4  C5  42C A 401      -6.909  18.021  -7.430  1.00  0.00     0.183 A 
HETATM    5  C8  42C A 401      -7.895  17.626  -3.190  1.00  0.00     0.182 A 
HETATM    6  N6  42C A 401      -5.591  18.092  -7.066  1.00  0.00    -0.337 N 
ATOM      7  H6  42C A 401      -4.846  18.201  -7.754  1.00  0.00     0.168 HD
HETATM    8  N4  42C A 401      -8.017  17.881  -6.687  1.00  0.00    -0.337 N 
ATOM      9  H4  42C A 401      -8.962  17.838  -7.068  1.00  0.00     0.168 HD
HETATM   10  N9  42C A 401      -8.652  17.654  -4.313  1.00  0.00    -0.337 N 
HETATM   11  N7  42C A 401      -6.522  17.748  -3.431  1.00  0.00    -0.346 N 
ATOM     12  H7  42C A 401      -5.775  17.754  -2.737  1.00  0.00     0.167 HD
HETATM   13  H   42C A 401      -9.631  17.585  -4.381  1.00  0.00     0.168 HD
ENDROOT
BRANCH   1  14
HETATM   14  N10 42C A 401      -3.973  18.078  -5.303  1.00  0.00    -0.374 N 
HETATM   15  C11 42C A 401      -3.550  19.247  -4.498  1.00  0.00     0.150 C 
HETATM   16  C12 42C A 401      -3.073  16.976  -5.732  1.00  0.00     0.150 C 
ENDBRANCH   1  14
TORSDOF 1
ENDMDL
MODEL 33
REMARK VINA RESULT:    -2.316      1.823      2.899
REMARK INTER + INTRA:          -2.645
REMARK INTER:                  -2.466
REMARK INTRA:                  -0.179
REMARK UNBOUND:                -0.194
REMARK  1 active torsions:
REMARK  status: ('A' for Active; 'I' for Inactive)
REMARK    1  A    between atoms: C1_1  and  N10_8 
ROOT
HETATM    1  C1  42C A 401      -6.223  18.156  -5.027  1.00  0.00     0.134 A 
HETATM    2  C2  42C A 401      -6.227  19.398  -4.375  1.00  0.00     0.122 A 
HETATM    3  C3  42C A 401      -4.950  19.885  -3.899  1.00  0.00     0.138 A 
HETATM    4  C5  42C A 401      -3.943  18.053  -4.685  1.00  0.00     0.183 A 
HETATM    5  C8  42C A 401      -6.451  21.382  -3.371  1.00  0.00     0.182 A 
HETATM    6  N6  42C A 401      -5.073  17.465  -5.188  1.00  0.00    -0.337 N 
ATOM      7  H6  42C A 401      -5.048  16.560  -5.657  1.00  0.00     0.168 HD
HETATM    8  N4  42C A 401      -3.773  19.219  -4.045  1.00  0.00    -0.337 N 
ATOM      9  H4  42C A 401      -2.873  19.564  -3.710  1.00  0.00     0.168 HD
HETATM   10  N9  42C A 401      -5.123  21.135  -3.272  1.00  0.00    -0.337 N 
HETATM   11  N7  42C A 401      -7.167  20.372  -4.023  1.00  0.00    -0.346 N 
ATOM     12  H7  42C A 401      -8.171  20.350  -4.204  1.00  0.00     0.167 HD
HETATM   13  H   42C A 401      -4.434  21.702  -2.857  1.00  0.00     0.168 HD
ENDROOT
BRANCH   1  14
HETATM   14  N10 42C A 401      -7.437  17.587  -5.533  1.00  0.00    -0.374 N 
HETATM   15  C11 42C A 401      -8.470  17.152  -4.565  1.00  0.00     0.150 C 
HETATM   16  C12 42C A 401      -7.546  17.442  -7.008  1.00  0.00     0.150 C 
ENDBRANCH   1  14
TORSDOF 1
ENDMDL
MODEL 34
REMARK VINA RESULT:    -2.285      2.517      4.462
REMARK INTER + INTRA:          -2.613
REMARK INTER:                  -2.402
REMARK INTRA:                  -0.211
REMARK UNBOUND:                -0.194
REMARK  1 active torsions:
REMARK  status: ('A' for Active; 'I' for Inactive)
REMARK    1  A    between atoms: C1_1  and  N10_8 
ROOT
HETATM    1  C1  42C A 401      -5.371  19.998  -4.354  1.00  0.00     0.134 A 
HETATM    2  C2  42C A 401      -6.057  19.311  -5.366  1.00  0.00     0.122 A 
HETATM    3  C3  42C A 401      -5.499  18.041  -5.781  1.00  0.00     0.138 A 
HETATM    4  C5  42C A 401      -3.839  18.273  -4.305  1.00  0.00     0.183 A 
HETATM    5  C8  42C A 401      -7.293  18.382  -6.980  1.00  0.00     0.182 A 
HETATM    6  N6  42C A 401      -4.246  19.483  -3.811  1.00  0.00    -0.337 N 
ATOM      7  H6  42C A 401      -3.731  19.967  -3.076  1.00  0.00     0.168 HD
HETATM    8  N4  42C A 401      -4.372  17.491  -5.256  1.00  0.00    -0.337 N 
ATOM      9  H4  42C A 401      -3.980  16.596  -5.548  1.00  0.00     0.168 HD
HETATM   10  N9  42C A 401      -6.299  17.481  -6.797  1.00  0.00    -0.337 N 
HETATM   11  N7  42C A 401      -7.199  19.504  -6.150  1.00  0.00    -0.346 N 
ATOM     12  H7  42C A 401      -7.835  20.302  -6.121  1.00  0.00     0.167 HD
HETATM   13  H   42C A 401      -6.166  16.627  -7.267  1.00  0.00     0.168 HD
ENDROOT
BRANCH   1  14
HETATM   14  N10 42C A 401      -5.841  21.265  -3.876  1.00  0.00    -0.374 N 
HETATM   15  C11 42C A 401      -5.147  22.492  -4.327  1.00  0.00     0.150 C 
HETATM   16  C12 42C A 401      -6.982  21.239  -2.923  1.00  0.00     0.150 C 
ENDBRANCH   1  14
TORSDOF 1
ENDMDL
MODEL 35
REMARK VINA RESULT:    -2.191      2.275      3.777
REMARK INTER + INTRA:          -2.513
REMARK INTER:                  -2.301
REMARK INTRA:                  -0.212
REMARK UNBOUND:                -0.194
REMARK  1 active torsions:
REMARK  status: ('A' for Active; 'I' for Inactive)
REMARK    1  A    between atoms: C1_1  and  N10_8 
ROOT
HETATM    1  C1  42C A 401      -5.569  20.847  -5.714  1.00  0.00     0.134 A 
HETATM    2  C2  42C A 401      -6.403  20.525  -4.633  1.00  0.00     0.122 A 
HETATM    3  C3  42C A 401      -6.466  21.488  -3.554  1.00  0.00     0.138 A 
HETATM    4  C5  42C A 401      -5.028  22.812  -4.634  1.00  0.00     0.183 A 
HETATM    5  C8  42C A 401      -7.781  19.827  -3.018  1.00  0.00     0.182 A 
HETATM    6  N6  42C A 401      -4.867  22.001  -5.724  1.00  0.00    -0.337 N 
ATOM      7  H6  42C A 401      -4.253  22.253  -6.499  1.00  0.00     0.168 HD
HETATM    8  N4  42C A 401      -5.776  22.660  -3.531  1.00  0.00    -0.337 N 
ATOM      9  H4  42C A 401      -5.822  23.338  -2.770  1.00  0.00     0.168 HD
HETATM   10  N9  42C A 401      -7.341  21.021  -2.553  1.00  0.00    -0.337 N 
HETATM   11  N7  42C A 401      -7.250  19.475  -4.263  1.00  0.00    -0.346 N 
ATOM     12  H7  42C A 401      -7.441  18.625  -4.793  1.00  0.00     0.167 HD
HETATM   13  H   42C A 401      -7.579  21.463  -1.707  1.00  0.00     0.168 HD
ENDROOT
BRANCH   1  14
HETATM   14  N10 42C A 401      -5.437  19.958  -6.830  1.00  0.00    -0.374 N 
HETATM   15  C11 42C A 401      -4.533  18.792  -6.701  1.00  0.00     0.150 C 
HETATM   16  C12 42C A 401      -6.200  20.305  -8.058  1.00  0.00     0.150 C 
ENDBRANCH   1  14
TORSDOF 1
ENDMDL
MODEL 36
REMARK VINA RESULT:    -2.117      2.465      4.598
REMARK INTER + INTRA:          -2.434
REMARK INTER:                  -2.230
REMARK INTRA:                  -0.204
REMARK UNBOUND:                -0.194
REMARK  1 active torsions:
REMARK  status: ('A' for Active; 'I' for Inactive)
REMARK    1  A    between atoms: C1_1  and  N10_8 
ROOT
HETATM    1  C1  42C A 401      -5.288  20.056  -4.140  1.00  0.00     0.134 A 
HETATM    2  C2  42C A 401      -5.891  19.271  -5.134  1.00  0.00     0.122 A 
HETATM    3  C3  42C A 401      -5.187  18.067  -5.525  1.00  0.00     0.138 A 
HETATM    4  C5  42C A 401      -3.563  18.527  -4.062  1.00  0.00     0.183 A 
HETATM    5  C8  42C A 401      -7.012  18.168  -6.722  1.00  0.00     0.182 A 
HETATM    6  N6  42C A 401      -4.109  19.690  -3.592  1.00  0.00    -0.337 N 
ATOM      7  H6  42C A 401      -3.653  20.248  -2.870  1.00  0.00     0.168 HD
HETATM    8  N4  42C A 401      -4.001  17.666  -4.994  1.00  0.00    -0.337 N 
ATOM      9  H4  42C A 401      -3.507  16.818  -5.269  1.00  0.00     0.168 HD
HETATM   10  N9  42C A 401      -5.918  17.395  -6.525  1.00  0.00    -0.337 N 
HETATM   11  N7  42C A 401      -7.050  19.310  -5.916  1.00  0.00    -0.346 N 
ATOM     12  H7  42C A 401      -7.776  20.027  -5.901  1.00  0.00     0.167 HD
HETATM   13  H   42C A 401      -5.685  16.553  -6.978  1.00  0.00     0.168 HD
ENDROOT
BRANCH   1  14
HETATM   14  N10 42C A 401      -5.905  21.268  -3.686  1.00  0.00    -0.374 N 
HETATM   15  C11 42C A 401      -7.110  21.170  -2.832  1.00  0.00     0.150 C 
HETATM   16  C12 42C A 401      -5.298  22.543  -4.149  1.00  0.00     0.150 C 
ENDBRANCH   1  14
TORSDOF 1
ENDMDL
MODEL 37
REMARK VINA RESULT:    -2.060      2.870      3.154
REMARK INTER + INTRA:          -2.374
REMARK INTER:                  -2.164
REMARK INTRA:                  -0.210
REMARK UNBOUND:                -0.194
REMARK  1 active torsions:
REMARK  status: ('A' for Active; 'I' for Inactive)
REMARK    1  A    between atoms: C1_1  and  N10_8 
ROOT
HETATM    1  C1  42C A 401      -5.522  18.521  -6.208  1.00  0.00     0.134 A 
HETATM    2  C2  42C A 401      -5.582  19.576  -5.286  1.00  0.00     0.122 A 
HETATM    3  C3  42C A 401      -4.645  19.528  -4.183  1.00  0.00     0.138 A 
HETATM    4  C5  42C A 401      -3.808  17.609  -4.962  1.00  0.00     0.183 A 
HETATM    5  C8  42C A 401      -5.839  21.340  -3.938  1.00  0.00     0.182 A 
HETATM    6  N6  42C A 401      -4.629  17.519  -6.053  1.00  0.00    -0.337 N 
ATOM      7  H6  42C A 401      -4.571  16.741  -6.711  1.00  0.00     0.168 HD
HETATM    8  N4  42C A 401      -3.731  18.537  -3.997  1.00  0.00    -0.337 N 
ATOM      9  H4  42C A 401      -3.071  18.505  -3.221  1.00  0.00     0.168 HD
HETATM   10  N9  42C A 401      -4.831  20.651  -3.354  1.00  0.00    -0.337 N 
HETATM   11  N7  42C A 401      -6.333  20.742  -5.102  1.00  0.00    -0.346 N 
ATOM     12  H7  42C A 401      -7.087  21.085  -5.697  1.00  0.00     0.167 HD
HETATM   13  H   42C A 401      -4.339  20.883  -2.533  1.00  0.00     0.168 HD
ENDROOT
BRANCH   1  14
HETATM   14  N10 42C A 401      -6.410  18.476  -7.333  1.00  0.00    -0.374 N 
HETATM   15  C11 42C A 401      -6.148  19.382  -8.475  1.00  0.00     0.150 C 
HETATM   16  C12 42C A 401      -7.559  17.538  -7.243  1.00  0.00     0.150 C 
ENDBRANCH   1  14
TORSDOF 1
ENDMDL
MODEL 38
REMARK VINA RESULT:    -2.054      2.281      4.037
REMARK INTER + INTRA:          -2.367
REMARK INTER:                  -2.197
REMARK INTRA:                  -0.170
REMARK UNBOUND:                -0.194
REMARK  1 active torsions:
REMARK  status: ('A' for Active; 'I' for Inactive)
REMARK    1  A    between atoms: C1_1  and  N10_8 
ROOT
HETATM    1  C1  42C A 401      -7.163  18.473  -5.682  1.00  0.00     0.134 A 
HETATM    2  C2  42C A 401      -5.846  18.445  -5.200  1.00  0.00     0.122 A 
HETATM    3  C3  42C A 401      -4.881  19.265  -5.902  1.00  0.00     0.138 A 
HETATM    4  C5  42C A 401      -6.472  19.955  -7.310  1.00  0.00     0.183 A 
HETATM    5  C8  42C A 401      -3.817  18.259  -4.281  1.00  0.00     0.182 A 
HETATM    6  N6  42C A 401      -7.491  19.232  -6.749  1.00  0.00    -0.337 N 
ATOM      7  H6  42C A 401      -8.442  19.265  -7.117  1.00  0.00     0.168 HD
HETATM    8  N4  42C A 401      -5.175  20.043  -6.978  1.00  0.00    -0.337 N 
ATOM      9  H4  42C A 401      -4.496  20.621  -7.471  1.00  0.00     0.168 HD
HETATM   10  N9  42C A 401      -3.615  19.127  -5.300  1.00  0.00    -0.337 N 
HETATM   11  N7  42C A 401      -5.139  17.812  -4.172  1.00  0.00    -0.346 N 
ATOM     12  H7  42C A 401      -5.511  17.159  -3.484  1.00  0.00     0.167 HD
HETATM   13  H   42C A 401      -2.773  19.564  -5.561  1.00  0.00     0.168 HD
ENDROOT
BRANCH   1  14
HETATM   14  N10 42C A 401      -8.191  17.693  -5.056  1.00  0.00    -0.374 N 
HETATM   15  C11 42C A 401      -8.581  18.024  -3.667  1.00  0.00     0.150 C 
HETATM   16  C12 42C A 401      -8.763  16.577  -5.853  1.00  0.00     0.150 C 
ENDBRANCH   1  14
TORSDOF 1
ENDMDL
MODEL 39
REMARK VINA RESULT:    -2.015      2.599      3.576
REMARK INTER + INTRA:          -2.326
REMARK INTER:                  -2.120
REMARK INTRA:                  -0.206
REMARK UNBOUND:                -0.194
REMARK  1 active torsions:
REMARK  status: ('A' for Active; 'I' for Inactive)
REMARK    1  A    between atoms: C1_1  and  N10_8 
ROOT
HETATM    1  C1  42C A 401      -5.847  18.836  -4.507  1.00  0.00     0.134 A 
HETATM    2  C2  42C A 401      -5.372  20.151  -4.395  1.00  0.00     0.122 A 
HETATM    3  C3  42C A 401      -3.950  20.309  -4.170  1.00  0.00     0.138 A 
HETATM    4  C5  42C A 401      -3.687  18.091  -4.190  1.00  0.00     0.183 A 
HETATM    5  C8  42C A 401      -4.821  22.311  -4.248  1.00  0.00     0.182 A 
HETATM    6  N6  42C A 401      -5.004  17.786  -4.403  1.00  0.00    -0.337 N 
ATOM      7  H6  42C A 401      -5.329  16.822  -4.479  1.00  0.00     0.168 HD
HETATM    8  N4  42C A 401      -3.072  19.277  -4.063  1.00  0.00    -0.337 N 
ATOM      9  H4  42C A 401      -2.071  19.389  -3.905  1.00  0.00     0.168 HD
HETATM   10  N9  42C A 401      -3.635  21.679  -4.082  1.00  0.00    -0.337 N 
HETATM   11  N7  42C A 401      -5.902  21.444  -4.438  1.00  0.00    -0.346 N 
ATOM     12  H7  42C A 401      -6.879  21.703  -4.579  1.00  0.00     0.167 HD
HETATM   13  H   42C A 401      -2.751  22.086  -3.934  1.00  0.00     0.168 HD
ENDROOT
BRANCH   1  14
HETATM   14  N10 42C A 401      -7.240  18.574  -4.728  1.00  0.00    -0.374 N 
HETATM   15  C11 42C A 401      -8.178  18.740  -3.594  1.00  0.00     0.150 C 
HETATM   16  C12 42C A 401      -7.627  18.113  -6.087  1.00  0.00     0.150 C 
ENDBRANCH   1  14
TORSDOF 1
ENDMDL
MODEL 40
REMARK VINA RESULT:    -2.003      2.466      4.833
REMARK INTER + INTRA:          -2.314
REMARK INTER:                  -2.104
REMARK INTRA:                  -0.210
REMARK UNBOUND:                -0.194
REMARK  1 active torsions:
REMARK  status: ('A' for Active; 'I' for Inactive)
REMARK    1  A    between atoms: C1_1  and  N10_8 
ROOT
HETATM    1  C1  42C A 401      -6.125  19.562  -5.664  1.00  0.00     0.134 A 
HETATM    2  C2  42C A 401      -5.055  18.656  -5.699  1.00  0.00     0.122 A 
HETATM    3  C3  42C A 401      -5.026  17.729  -6.811  1.00  0.00     0.138 A 
HETATM    4  C5  42C A 401      -6.912  18.615  -7.615  1.00  0.00     0.183 A 
HETATM    5  C8  42C A 401      -3.278  17.307  -5.570  1.00  0.00     0.182 A 
HETATM    6  N6  42C A 401      -7.072  19.549  -6.628  1.00  0.00    -0.337 N 
ATOM      7  H6  42C A 401      -7.860  20.197  -6.620  1.00  0.00     0.168 HD
HETATM    8  N4  42C A 401      -5.959  17.688  -7.799  1.00  0.00    -0.337 N 
ATOM      9  H4  42C A 401      -5.938  17.035  -8.582  1.00  0.00     0.168 HD
HETATM   10  N9  42C A 401      -3.897  16.894  -6.701  1.00  0.00    -0.337 N 
HETATM   11  N7  42C A 401      -3.929  18.363  -4.923  1.00  0.00    -0.346 N 
ATOM     12  H7  42C A 401      -3.641  18.825  -4.060  1.00  0.00     0.167 HD
HETATM   13  H   42C A 401      -3.620  16.172  -7.310  1.00  0.00     0.168 HD
ENDROOT
BRANCH   1  14
HETATM   14  N10 42C A 401      -6.244  20.519  -4.603  1.00  0.00    -0.374 N 
HETATM   15  C11 42C A 401      -7.238  20.269  -3.535  1.00  0.00     0.150 C 
HETATM   16  C12 42C A 401      -5.374  21.721  -4.684  1.00  0.00     0.150 C 
ENDBRANCH   1  14
TORSDOF 1
ENDMDL
MODEL 41
REMARK VINA RESULT:    -1.924      2.246      3.463
REMARK INTER + INTRA:          -2.230
REMARK INTER:                  -2.072
REMARK INTRA:                  -0.158
REMARK UNBOUND:                -0.194
REMARK  1 active torsions:
REMARK  status: ('A' for Active; 'I' for Inactive)
REMARK    1  A    between atoms: C1_1  and  N10_8 
ROOT
HETATM    1  C1  42C A 401      -5.486  18.536  -6.399  1.00  0.00     0.134 A 
HETATM    2  C2  42C A 401      -6.776  18.138  -6.017  1.00  0.00     0.122 A 
HETATM    3  C3  42C A 401      -6.964  17.801  -4.622  1.00  0.00     0.138 A 
HETATM    4  C5  42C A 401      -4.813  18.244  -4.212  1.00  0.00     0.183 A 
HETATM    5  C8  42C A 401      -8.890  17.533  -5.618  1.00  0.00     0.182 A 
HETATM    6  N6  42C A 401      -4.485  18.592  -5.494  1.00  0.00    -0.337 N 
ATOM      7  H6  42C A 401      -3.539  18.876  -5.751  1.00  0.00     0.168 HD
HETATM    8  N4  42C A 401      -5.981  17.848  -3.683  1.00  0.00    -0.337 N 
ATOM      9  H4  42C A 401      -6.115  17.612  -2.700  1.00  0.00     0.168 HD
HETATM   10  N9  42C A 401      -8.304  17.425  -4.402  1.00  0.00    -0.337 N 
HETATM   11  N7  42C A 401      -8.020  17.955  -6.629  1.00  0.00    -0.346 N 
ATOM     12  H7  42C A 401      -8.247  18.100  -7.613  1.00  0.00     0.167 HD
HETATM   13  H   42C A 401      -8.720  17.147  -3.555  1.00  0.00     0.168 HD
ENDROOT
BRANCH   1  14
HETATM   14  N10 42C A 401      -5.197  18.887  -7.759  1.00  0.00    -0.374 N 
HETATM   15  C11 42C A 401      -5.888  20.057  -8.348  1.00  0.00     0.150 C 
HETATM   16  C12 42C A 401      -4.243  18.012  -8.489  1.00  0.00     0.150 C 
ENDBRANCH   1  14
TORSDOF 1
ENDMDL
MODEL 42
REMARK VINA RESULT:    -1.901      1.848      3.944
REMARK INTER + INTRA:          -2.206
REMARK INTER:                  -2.354
REMARK INTRA:                   0.148
REMARK UNBOUND:                -0.194
REMARK  1 active torsions:
REMARK  status: ('A' for Active; 'I' for Inactive)
REMARK    1  A    between atoms: C1_1  and  N10_8 
ROOT
HETATM    1  C1  42C A 401      -7.716  18.582  -5.037  1.00  0.00     0.134 A 
HETATM    2  C2  42C A 401      -6.950  19.397  -5.883  1.00  0.00     0.122 A 
HETATM    3  C3  42C A 401      -6.978  19.074  -7.294  1.00  0.00     0.138 A 
HETATM    4  C5  42C A 401      -8.363  17.369  -6.889  1.00  0.00     0.183 A 
HETATM    5  C8  42C A 401      -5.670  20.808  -7.053  1.00  0.00     0.182 A 
HETATM    6  N6  42C A 401      -8.434  17.552  -5.535  1.00  0.00    -0.337 N 
ATOM      7  H6  42C A 401      -8.996  16.946  -4.937  1.00  0.00     0.168 HD
HETATM    8  N4  42C A 401      -7.690  18.047  -7.831  1.00  0.00    -0.337 N 
ATOM      9  H4  42C A 401      -7.710  17.821  -8.825  1.00  0.00     0.168 HD
HETATM   10  N9  42C A 401      -6.164  19.979  -8.003  1.00  0.00    -0.337 N 
HETATM   11  N7  42C A 401      -6.106  20.506  -5.758  1.00  0.00    -0.346 N 
ATOM     12  H7  42C A 401      -5.859  20.994  -4.898  1.00  0.00     0.167 HD
HETATM   13  H   42C A 401      -5.993  20.004  -8.972  1.00  0.00     0.168 HD
ENDROOT
BRANCH   1  14
HETATM   14  N10 42C A 401      -7.752  18.819  -3.623  1.00  0.00    -0.374 N 
HETATM   15  C11 42C A 401      -7.633  20.213  -3.137  1.00  0.00     0.150 C 
HETATM   16  C12 42C A 401      -7.870  17.625  -2.747  1.00  0.00     0.150 C 
ENDBRANCH   1  14
TORSDOF 1
ENDMDL
MODEL 43
REMARK VINA RESULT:    -1.712      2.837      5.141
REMARK INTER + INTRA:          -2.005
REMARK INTER:                  -1.864
REMARK INTRA:                  -0.141
REMARK UNBOUND:                -0.194
REMARK  1 active torsions:
REMARK  status: ('A' for Active; 'I' for Inactive)
REMARK    1  A    between atoms: C1_1  and  N10_8 
ROOT
HETATM    1  C1  42C A 401      -5.715  20.601  -4.651  1.00  0.00     0.134 A 
HETATM    2  C2  42C A 401      -5.838  20.474  -6.042  1.00  0.00     0.122 A 
HETATM    3  C3  42C A 401      -4.805  21.096  -6.844  1.00  0.00     0.138 A 
HETATM    4  C5  42C A 401      -3.779  21.809  -4.993  1.00  0.00     0.183 A 
HETATM    5  C8  42C A 401      -6.218  20.158  -8.222  1.00  0.00     0.182 A 
HETATM    6  N6  42C A 401      -4.678  21.276  -4.109  1.00  0.00    -0.337 N 
ATOM      7  H6  42C A 401      -4.570  21.382  -3.100  1.00  0.00     0.168 HD
HETATM    8  N4  42C A 401      -3.747  21.780  -6.334  1.00  0.00    -0.337 N 
ATOM      9  H4  42C A 401      -3.019  22.216  -6.900  1.00  0.00     0.168 HD
HETATM   10  N9  42C A 401      -5.072  20.879  -8.211  1.00  0.00    -0.337 N 
HETATM   11  N7  42C A 401      -6.727  19.886  -6.948  1.00  0.00    -0.346 N 
ATOM     12  H7  42C A 401      -7.575  19.364  -6.724  1.00  0.00     0.167 HD
HETATM   13  H   42C A 401      -4.544  21.183  -8.983  1.00  0.00     0.168 HD
ENDROOT
BRANCH   1  14
HETATM   14  N10 42C A 401      -6.688  20.023  -3.771  1.00  0.00    -0.374 N 
HETATM   15  C11 42C A 401      -6.889  18.557  -3.806  1.00  0.00     0.150 C 
HETATM   16  C12 42C A 401      -7.452  20.962  -2.909  1.00  0.00     0.150 C 
ENDBRANCH   1  14
TORSDOF 1
ENDMDL
MODEL 44
REMARK VINA RESULT:    -1.642      2.823      4.149
REMARK INTER + INTRA:          -1.932
REMARK INTER:                  -1.817
REMARK INTRA:                  -0.114
REMARK UNBOUND:                -0.194
REMARK  1 active torsions:
REMARK  status: ('A' for Active; 'I' for Inactive)
REMARK    1  A    between atoms: C1_1  and  N10_8 
ROOT
HETATM    1  C1  42C A 401      -4.440  19.847  -5.815  1.00  0.00     0.134 A 
HETATM    2  C2  42C A 401      -5.708  19.255  -5.721  1.00  0.00     0.122 A 
HETATM    3  C3  42C A 401      -5.862  18.206  -4.735  1.00  0.00     0.138 A 
HETATM    4  C5  42C A 401      -3.723  18.439  -4.134  1.00  0.00     0.183 A 
HETATM    5  C8  42C A 401      -7.791  18.447  -5.731  1.00  0.00     0.182 A 
HETATM    6  N6  42C A 401      -3.427  19.442  -5.019  1.00  0.00    -0.337 N 
ATOM      7  H6  42C A 401      -2.497  19.857  -5.072  1.00  0.00     0.168 HD
HETATM    8  N4  42C A 401      -4.867  17.773  -3.915  1.00  0.00    -0.337 N 
ATOM      9  H4  42C A 401      -4.977  17.035  -3.221  1.00  0.00     0.168 HD
HETATM   10  N9  42C A 401      -7.183  17.718  -4.766  1.00  0.00    -0.337 N 
HETATM   11  N7  42C A 401      -6.954  19.386  -6.343  1.00  0.00    -0.346 N 
ATOM     12  H7  42C A 401      -7.201  20.034  -7.091  1.00  0.00     0.167 HD
HETATM   13  H   42C A 401      -7.576  17.007  -4.210  1.00  0.00     0.168 HD
ENDROOT
BRANCH   1  14
HETATM   14  N10 42C A 401      -4.186  20.893  -6.762  1.00  0.00    -0.374 N 
HETATM   15  C11 42C A 401      -4.427  20.620  -8.198  1.00  0.00     0.150 C 
HETATM   16  C12 42C A 401      -3.657  22.173  -6.221  1.00  0.00     0.150 C 
ENDBRANCH   1  14
TORSDOF 1
ENDMDL
MODEL 45
REMARK VINA RESULT:    -1.604      2.065      3.923
REMARK INTER + INTRA:          -1.891
REMARK INTER:                  -1.700
REMARK INTRA:                  -0.191
REMARK UNBOUND:                -0.194
REMARK  1 active torsions:
REMARK  status: ('A' for Active; 'I' for Inactive)
REMARK    1  A    between atoms: C1_1  and  N10_8 
ROOT
HETATM    1  C1  42C A 401      -5.093  19.768  -4.781  1.00  0.00     0.134 A 
HETATM    2  C2  42C A 401      -6.279  19.234  -4.257  1.00  0.00     0.122 A 
HETATM    3  C3  42C A 401      -6.835  18.089  -4.947  1.00  0.00     0.138 A 
HETATM    4  C5  42C A 401      -5.159  18.147  -6.421  1.00  0.00     0.183 A 
HETATM    5  C8  42C A 401      -8.159  18.539  -3.268  1.00  0.00     0.182 A 
HETATM    6  N6  42C A 401      -4.517  19.227  -5.877  1.00  0.00    -0.337 N 
ATOM      7  H6  42C A 401      -3.656  19.601  -6.275  1.00  0.00     0.168 HD
HETATM    8  N4  42C A 401      -6.284  17.517  -6.051  1.00  0.00    -0.337 N 
ATOM      9  H4  42C A 401      -6.676  16.710  -6.535  1.00  0.00     0.168 HD
HETATM   10  N9  42C A 401      -8.017  17.675  -4.301  1.00  0.00    -0.337 N 
HETATM   11  N7  42C A 401      -7.145  19.500  -3.191  1.00  0.00    -0.346 N 
ATOM     12  H7  42C A 401      -7.056  20.244  -2.499  1.00  0.00     0.167 HD
HETATM   13  H   42C A 401      -8.607  16.926  -4.545  1.00  0.00     0.168 HD
ENDROOT
BRANCH   1  14
HETATM   14  N10 42C A 401      -4.465  20.903  -4.170  1.00  0.00    -0.374 N 
HETATM   15  C11 42C A 401      -3.208  20.693  -3.415  1.00  0.00     0.150 C 
HETATM   16  C12 42C A 401      -5.157  22.210  -4.315  1.00  0.00     0.150 C 
ENDBRANCH   1  14
TORSDOF 1
ENDMDL
MODEL 46
REMARK VINA RESULT:    -1.553      2.321      4.321
REMARK INTER + INTRA:          -1.837
REMARK INTER:                  -1.643
REMARK INTRA:                  -0.194
REMARK UNBOUND:                -0.194
REMARK  1 active torsions:
REMARK  status: ('A' for Active; 'I' for Inactive)
REMARK    1  A    between atoms: C1_1  and  N10_8 
ROOT
HETATM    1  C1  42C A 401      -6.647  18.204  -6.549  1.00  0.00     0.134 A 
HETATM    2  C2  42C A 401      -6.039  19.468  -6.536  1.00  0.00     0.122 A 
HETATM    3  C3  42C A 401      -4.949  19.673  -7.466  1.00  0.00     0.138 A 
HETATM    4  C5  42C A 401      -5.177  17.581  -8.215  1.00  0.00     0.183 A 
HETATM    5  C8  42C A 401      -5.212  21.536  -6.356  1.00  0.00     0.182 A 
HETATM    6  N6  42C A 401      -6.218  17.241  -7.394  1.00  0.00    -0.337 N 
ATOM      7  H6  42C A 401      -6.644  16.314  -7.418  1.00  0.00     0.168 HD
HETATM    8  N4  42C A 401      -4.492  18.729  -8.331  1.00  0.00    -0.337 N 
ATOM      9  H4  42C A 401      -3.725  18.875  -8.987  1.00  0.00     0.168 HD
HETATM   10  N9  42C A 401      -4.450  20.983  -7.329  1.00  0.00    -0.337 N 
HETATM   11  N7  42C A 401      -6.183  20.672  -5.839  1.00  0.00    -0.346 N 
ATOM     12  H7  42C A 401      -6.859  20.878  -5.104  1.00  0.00     0.167 HD
HETATM   13  H   42C A 401      -3.713  21.403  -7.829  1.00  0.00     0.168 HD
ENDROOT
BRANCH   1  14
HETATM   14  N10 42C A 401      -7.733  17.901  -5.664  1.00  0.00    -0.374 N 
HETATM   15  C11 42C A 401      -7.447  17.755  -4.219  1.00  0.00     0.150 C 
HETATM   16  C12 42C A 401      -9.071  17.718  -6.284  1.00  0.00     0.150 C 
ENDBRANCH   1  14
TORSDOF 1
ENDMDL
MODEL 47
REMARK VINA RESULT:    -1.483      2.651      3.654
REMARK INTER + INTRA:          -1.763
REMARK INTER:                  -1.616
REMARK INTRA:                  -0.147
REMARK UNBOUND:                -0.194
REMARK  1 active torsions:
REMARK  status: ('A' for Active; 'I' for Inactive)
REMARK    1  A    between atoms: C1_1  and  N10_8 
ROOT
HETATM    1  C1  42C A 401      -5.911  19.873  -5.294  1.00  0.00     0.134 A 
HETATM    2  C2  42C A 401      -4.972  20.914  -5.348  1.00  0.00     0.122 A 
HETATM    3  C3  42C A 401      -5.107  21.961  -4.357  1.00  0.00     0.138 A 
HETATM    4  C5  42C A 401      -6.887  20.928  -3.489  1.00  0.00     0.183 A 
HETATM    5  C8  42C A 401      -3.386  22.468  -5.604  1.00  0.00     0.182 A 
HETATM    6  N6  42C A 401      -6.886  19.871  -4.359  1.00  0.00    -0.337 N 
ATOM      7  H6  42C A 401      -7.580  19.126  -4.304  1.00  0.00     0.168 HD
HETATM    8  N4  42C A 401      -6.073  21.991  -3.400  1.00  0.00    -0.337 N 
ATOM      9  H4  42C A 401      -6.167  22.728  -2.702  1.00  0.00     0.168 HD
HETATM   10  N9  42C A 401      -4.095  22.923  -4.544  1.00  0.00    -0.337 N 
HETATM   11  N7  42C A 401      -3.868  21.264  -6.131  1.00  0.00    -0.346 N 
ATOM     12  H7  42C A 401      -3.490  20.748  -6.925  1.00  0.00     0.167 HD
HETATM   13  H   42C A 401      -3.938  23.742  -4.021  1.00  0.00     0.168 HD
ENDROOT
BRANCH   1  14
HETATM   14  N10 42C A 401      -5.864  18.791  -6.233  1.00  0.00    -0.374 N 
HETATM   15  C11 42C A 401      -4.659  17.930  -6.258  1.00  0.00     0.150 C 
HETATM   16  C12 42C A 401      -7.029  18.643  -7.144  1.00  0.00     0.150 C 
ENDBRANCH   1  14
TORSDOF 1
ENDMDL
MODEL 48
REMARK VINA RESULT:    -1.310      2.437      3.141
REMARK INTER + INTRA:          -1.580
REMARK INTER:                  -1.365
REMARK INTRA:                  -0.215
REMARK UNBOUND:                -0.194
REMARK  1 active torsions:
REMARK  status: ('A' for Active; 'I' for Inactive)
REMARK    1  A    between atoms: C1_1  and  N10_8 
ROOT
HETATM    1  C1  42C A 401      -5.960  18.665  -6.373  1.00  0.00     0.134 A 
HETATM    2  C2  42C A 401      -4.905  19.132  -5.577  1.00  0.00     0.122 A 
HETATM    3  C3  42C A 401      -5.102  19.084  -4.144  1.00  0.00     0.138 A 
HETATM    4  C5  42C A 401      -7.139  18.216  -4.441  1.00  0.00     0.183 A 
HETATM    5  C8  42C A 401      -3.114  19.919  -4.495  1.00  0.00     0.182 A 
HETATM    6  N6  42C A 401      -7.096  18.200  -5.809  1.00  0.00    -0.337 N 
ATOM      7  H6  42C A 401      -7.877  17.857  -6.370  1.00  0.00     0.168 HD
HETATM    8  N4  42C A 401      -6.230  18.621  -3.541  1.00  0.00    -0.337 N 
ATOM      9  H4  42C A 401      -6.368  18.587  -2.531  1.00  0.00     0.168 HD
HETATM   10  N9  42C A 401      -3.959  19.585  -3.491  1.00  0.00    -0.337 N 
HETATM   11  N7  42C A 401      -3.629  19.671  -5.772  1.00  0.00    -0.346 N 
ATOM     12  H7  42C A 401      -3.167  19.848  -6.665  1.00  0.00     0.167 HD
HETATM   13  H   42C A 401      -3.808  19.672  -2.522  1.00  0.00     0.168 HD
ENDROOT
BRANCH   1  14
HETATM   14  N10 42C A 401      -5.863  18.673  -7.804  1.00  0.00    -0.374 N 
HETATM   15  C11 42C A 401      -5.425  17.436  -8.489  1.00  0.00     0.150 C 
HETATM   16  C12 42C A 401      -6.176  19.954  -8.489  1.00  0.00     0.150 C 
ENDBRANCH   1  14
TORSDOF 1
ENDMDL
