MODEL 1
REMARK VINA RESULT:    -7.270      0.000      0.000
REMARK INTER + INTRA:         -10.694
REMARK INTER:                  -9.821
REMARK INTRA:                  -0.874
REMARK UNBOUND:                -0.874
REMARK  6 active torsions:
REMARK  status: ('A' for Active; 'I' for Inactive)
REMARK    1  A    between atoms: C9_13  and  N13_16 
REMARK    2  A    between atoms: N13_16  and  C14_17 
REMARK    3  A    between atoms: C16_21  and  N21_23 
REMARK       I    between atoms: N21_23  and  C22_24 
REMARK    4  A    between atoms: C22_24  and  C23_25 
REMARK    5  A    between atoms: C27_28  and  C46_31 
REMARK    6  A    between atoms: C46_31  and  N48_32 
ROOT
ATOM      1  C14 STI A1001     -40.023 160.050   0.719  1.00  0.00     0.057 A 
ATOM      2  C19 STI A1001     -41.329 159.841   1.159  1.00  0.00    -0.035 A 
ATOM      3  C18 STI A1001     -41.572 158.862   2.094  1.00  0.00     0.011 A 
ATOM      4  C17 STI A1001     -40.537 158.111   2.622  1.00  0.00     0.030 A 
ATOM      5  C16 STI A1001     -39.229 158.294   2.221  1.00  0.00     0.037 A 
ATOM      6  C15 STI A1001     -38.983 159.293   1.272  1.00  0.00     0.060 A 
ATOM      7  C20 STI A1001     -42.407 160.552   0.666  1.00  0.00     0.050 C 
ENDROOT
BRANCH   5   8
ATOM      8  N21 STI A1001     -38.303 157.524   2.834  1.00  0.00    -0.323 N 
ATOM      9  C22 STI A1001     -37.553 157.930   3.870  1.00  0.00     0.256 C 
ATOM     10  O29 STI A1001     -37.611 159.041   4.369  1.00  0.00    -0.267 OA
ATOM     11  H   STI A1001     -38.172 156.607   2.501  1.00  0.00     0.169 HD
BRANCH   9  12
ATOM     12  C23 STI A1001     -36.679 156.967   4.412  1.00  0.00     0.032 A 
ATOM     13  C25 STI A1001     -37.203 155.743   4.809  1.00  0.00     0.017 A 
ATOM     14  C26 STI A1001     -36.407 154.733   5.346  1.00  0.00     0.010 A 
ATOM     15  C27 STI A1001     -35.040 154.915   5.480  1.00  0.00    -0.030 A 
ATOM     16  C28 STI A1001     -34.501 156.127   5.061  1.00  0.00     0.010 A 
ATOM     17  C29 STI A1001     -35.305 157.145   4.532  1.00  0.00     0.017 A 
BRANCH  15  18
ATOM     18  C46 STI A1001     -34.243 153.883   6.013  1.00  0.00     0.311 C 
BRANCH  18  19
ATOM     19  N48 STI A1001     -34.935 152.590   6.078  1.00  0.00     0.095 N 
ATOM     20  C53 STI A1001     -34.401 151.631   5.113  1.00  0.00     0.300 C 
ATOM     21  C52 STI A1001     -35.216 150.375   5.105  1.00  0.00     0.264 C 
ATOM     22  N51 STI A1001     -35.236 149.772   6.440  1.00  0.00    -0.072 N 
ATOM     23  C54 STI A1001     -35.990 148.523   6.402  1.00  0.00     0.269 C 
ATOM     24  C50 STI A1001     -35.771 150.711   7.434  1.00  0.00     0.264 C 
ATOM     25  H   STI A1001     -34.281 149.557   6.727  1.00  0.00     0.279 HD
ATOM     26  C49 STI A1001     -34.954 152.004   7.427  1.00  0.00     0.300 C 
ENDBRANCH  18  19
ENDBRANCH  15  18
ENDBRANCH   9  12
ENDBRANCH   5   8
BRANCH   1  27
ATOM     27  N13 STI A1001     -39.862 161.035  -0.176  1.00  0.00    -0.191 N 
ATOM     28  H   STI A1001     -40.048 161.957   0.117  1.00  0.00     0.184 HD
BRANCH  27  29
ATOM     29  C9  STI A1001     -39.470 160.853  -1.431  1.00  0.00     0.679 A 
ATOM     30  N10 STI A1001     -39.280 159.635  -1.926  1.00  0.00    -0.223 N 
ATOM     31  C11 STI A1001     -38.873 159.473  -3.230  1.00  0.00     0.167 A 
ATOM     32  H10 STI A1001     -39.437 158.816  -1.338  1.00  0.00     0.178 HD
ATOM     33  C12 STI A1001     -38.653 160.587  -4.006  1.00  0.00     0.024 A 
ATOM     34  C7  STI A1001     -38.863 161.843  -3.475  1.00  0.00     0.058 A 
ATOM     35  C5  STI A1001     -38.629 162.972  -4.256  1.00  0.00     0.006 A 
ATOM     36  N8  STI A1001     -39.252 161.937  -2.204  1.00  0.00    -0.191 N 
ATOM     37  C6  STI A1001     -38.405 162.863  -5.619  1.00  0.00     0.016 A 
ATOM     38  C4  STI A1001     -38.600 164.220  -3.670  1.00  0.00     0.101 A 
ATOM     39  C1  STI A1001     -38.159 164.008  -6.367  1.00  0.00     0.018 A 
ATOM     40  C2  STI A1001     -38.137 165.261  -5.775  1.00  0.00     0.087 A 
ATOM     41  N3  STI A1001     -38.352 165.364  -4.411  1.00  0.00    -0.374 N 
ATOM     42  H3  STI A1001     -38.329 166.276  -3.955  1.00  0.00     0.164 HD
ATOM     43  H8  STI A1001     -39.391 162.864  -1.800  1.00  0.00     0.184 HD
ENDBRANCH  27  29
ENDBRANCH   1  27
TORSDOF 6
ENDMDL
MODEL 2
REMARK VINA RESULT:    -6.699      2.092     12.724
REMARK INTER + INTRA:          -9.922
REMARK INTER:                 -10.018
REMARK INTRA:                   0.096
REMARK UNBOUND:                -0.874
REMARK  6 active torsions:
REMARK  status: ('A' for Active; 'I' for Inactive)
REMARK    1  A    between atoms: C9_13  and  N13_16 
REMARK    2  A    between atoms: N13_16  and  C14_17 
REMARK    3  A    between atoms: C16_21  and  N21_23 
REMARK       I    between atoms: N21_23  and  C22_24 
REMARK    4  A    between atoms: C22_24  and  C23_25 
REMARK    5  A    between atoms: C27_28  and  C46_31 
REMARK    6  A    between atoms: C46_31  and  N48_32 
ROOT
ATOM      1  C14 STI A1001     -37.444 155.865   5.222  1.00  0.00     0.057 A 
ATOM      2  C19 STI A1001     -36.662 156.716   6.001  1.00  0.00    -0.035 A 
ATOM      3  C18 STI A1001     -36.181 157.878   5.447  1.00  0.00     0.011 A 
ATOM      4  C17 STI A1001     -36.490 158.225   4.143  1.00  0.00     0.030 A 
ATOM      5  C16 STI A1001     -37.270 157.415   3.342  1.00  0.00     0.037 A 
ATOM      6  C15 STI A1001     -37.761 156.234   3.910  1.00  0.00     0.060 A 
ATOM      7  C20 STI A1001     -36.313 156.424   7.307  1.00  0.00     0.050 C 
ENDROOT
BRANCH   5   8
ATOM      8  N21 STI A1001     -37.529 157.878   2.099  1.00  0.00    -0.323 N 
ATOM      9  C22 STI A1001     -38.650 158.535   1.760  1.00  0.00     0.256 C 
ATOM     10  O29 STI A1001     -39.564 158.779   2.528  1.00  0.00    -0.267 OA
ATOM     11  H   STI A1001     -36.854 157.724   1.399  1.00  0.00     0.169 HD
BRANCH   9  12
ATOM     12  C23 STI A1001     -38.717 158.988   0.427  1.00  0.00     0.032 A 
ATOM     13  C25 STI A1001     -38.790 158.046  -0.592  1.00  0.00     0.017 A 
ATOM     14  C26 STI A1001     -38.869 158.409  -1.935  1.00  0.00     0.010 A 
ATOM     15  C27 STI A1001     -38.901 159.745  -2.298  1.00  0.00    -0.030 A 
ATOM     16  C28 STI A1001     -38.855 160.697  -1.284  1.00  0.00     0.010 A 
ATOM     17  C29 STI A1001     -38.765 160.329   0.065  1.00  0.00     0.017 A 
BRANCH  15  18
ATOM     18  C46 STI A1001     -38.992 160.101  -3.658  1.00  0.00     0.311 C 
BRANCH  18  19
ATOM     19  N48 STI A1001     -38.518 161.462  -3.936  1.00  0.00     0.095 N 
ATOM     20  C53 STI A1001     -38.177 161.649  -5.345  1.00  0.00     0.300 C 
ATOM     21  C52 STI A1001     -37.566 162.998  -5.569  1.00  0.00     0.264 C 
ATOM     22  N51 STI A1001     -38.488 164.052  -5.140  1.00  0.00    -0.072 N 
ATOM     23  C54 STI A1001     -37.896 165.359  -5.415  1.00  0.00     0.269 C 
ATOM     24  C50 STI A1001     -38.847 163.894  -3.726  1.00  0.00     0.264 C 
ATOM     25  H   STI A1001     -39.355 163.979  -5.671  1.00  0.00     0.279 HD
ATOM     26  C49 STI A1001     -39.450 162.509  -3.490  1.00  0.00     0.300 C 
ENDBRANCH  18  19
ENDBRANCH  15  18
ENDBRANCH   9  12
ENDBRANCH   5   8
BRANCH   1  27
ATOM     27  N13 STI A1001     -37.895 154.763   5.839  1.00  0.00    -0.191 N 
ATOM     28  H   STI A1001     -38.725 154.837   6.363  1.00  0.00     0.184 HD
BRANCH  27  29
ATOM     29  C9  STI A1001     -37.297 153.578   5.791  1.00  0.00     0.679 A 
ATOM     30  N10 STI A1001     -35.993 153.471   5.559  1.00  0.00    -0.223 N 
ATOM     31  C11 STI A1001     -35.398 152.232   5.514  1.00  0.00     0.167 A 
ATOM     32  H10 STI A1001     -35.431 154.310   5.414  1.00  0.00     0.178 HD
ATOM     33  C12 STI A1001     -36.172 151.109   5.700  1.00  0.00     0.024 A 
ATOM     34  C7  STI A1001     -37.522 151.244   5.947  1.00  0.00     0.058 A 
ATOM     35  C5  STI A1001     -38.309 150.107   6.123  1.00  0.00     0.006 A 
ATOM     36  N8  STI A1001     -38.044 152.470   5.973  1.00  0.00    -0.191 N 
ATOM     37  C6  STI A1001     -37.733 148.857   6.277  1.00  0.00     0.016 A 
ATOM     38  C4  STI A1001     -39.684 150.217   6.126  1.00  0.00     0.101 A 
ATOM     39  C1  STI A1001     -38.547 147.742   6.434  1.00  0.00     0.018 A 
ATOM     40  C2  STI A1001     -39.928 147.857   6.443  1.00  0.00     0.087 A 
ATOM     41  N3  STI A1001     -40.499 149.108   6.280  1.00  0.00    -0.374 N 
ATOM     42  H3  STI A1001     -41.514 149.212   6.274  1.00  0.00     0.164 HD
ATOM     43  H8  STI A1001     -39.045 152.574   6.137  1.00  0.00     0.184 HD
ENDBRANCH  27  29
ENDBRANCH   1  27
TORSDOF 6
ENDMDL
MODEL 3
REMARK VINA RESULT:    -6.408      1.031      1.703
REMARK INTER + INTRA:          -9.530
REMARK INTER:                  -9.380
REMARK INTRA:                  -0.150
REMARK UNBOUND:                -0.874
REMARK  6 active torsions:
REMARK  status: ('A' for Active; 'I' for Inactive)
REMARK    1  A    between atoms: C9_13  and  N13_16 
REMARK    2  A    between atoms: N13_16  and  C14_17 
REMARK    3  A    between atoms: C16_21  and  N21_23 
REMARK       I    between atoms: N21_23  and  C22_24 
REMARK    4  A    between atoms: C22_24  and  C23_25 
REMARK    5  A    between atoms: C27_28  and  C46_31 
REMARK    6  A    between atoms: C46_31  and  N48_32 
ROOT
ATOM      1  C14 STI A1001     -39.797 159.312  -0.012  1.00  0.00     0.057 A 
ATOM      2  C19 STI A1001     -41.015 159.653   0.575  1.00  0.00    -0.035 A 
ATOM      3  C18 STI A1001     -41.335 159.130   1.805  1.00  0.00     0.011 A 
ATOM      4  C17 STI A1001     -40.454 158.301   2.476  1.00  0.00     0.030 A 
ATOM      5  C16 STI A1001     -39.234 157.947   1.934  1.00  0.00     0.037 A 
ATOM      6  C15 STI A1001     -38.909 158.483   0.683  1.00  0.00     0.060 A 
ATOM      7  C20 STI A1001     -41.942 160.471  -0.046  1.00  0.00     0.050 C 
ENDROOT
BRANCH   5   8
ATOM      8  N21 STI A1001     -38.447 157.159   2.700  1.00  0.00    -0.323 N 
ATOM      9  C22 STI A1001     -37.582 157.622   3.615  1.00  0.00     0.256 C 
ATOM     10  O29 STI A1001     -37.399 158.804   3.853  1.00  0.00    -0.267 OA
ATOM     11  H   STI A1001     -38.514 156.184   2.579  1.00  0.00     0.169 HD
BRANCH   9  12
ATOM     12  C23 STI A1001     -36.886 156.645   4.354  1.00  0.00     0.032 A 
ATOM     13  C25 STI A1001     -35.527 156.823   4.578  1.00  0.00     0.017 A 
ATOM     14  C26 STI A1001     -34.767 155.909   5.306  1.00  0.00     0.010 A 
ATOM     15  C27 STI A1001     -35.363 154.787   5.858  1.00  0.00    -0.030 A 
ATOM     16  C28 STI A1001     -36.729 154.612   5.663  1.00  0.00     0.010 A 
ATOM     17  C29 STI A1001     -37.488 155.527   4.921  1.00  0.00     0.017 A 
BRANCH  15  18
ATOM     18  C46 STI A1001     -34.588 153.876   6.602  1.00  0.00     0.311 C 
BRANCH  18  19
ATOM     19  N48 STI A1001     -34.916 152.472   6.325  1.00  0.00     0.095 N 
ATOM     20  C53 STI A1001     -34.278 151.989   5.102  1.00  0.00     0.300 C 
ATOM     21  C52 STI A1001     -34.743 150.605   4.771  1.00  0.00     0.264 C 
ATOM     22  N51 STI A1001     -34.446 149.690   5.876  1.00  0.00    -0.072 N 
ATOM     23  C54 STI A1001     -34.859 148.337   5.515  1.00  0.00     0.269 C 
ATOM     24  C50 STI A1001     -35.077 150.147   7.121  1.00  0.00     0.264 C 
ATOM     25  H   STI A1001     -33.441 149.681   6.046  1.00  0.00     0.279 HD
ATOM     26  C49 STI A1001     -34.621 151.569   7.448  1.00  0.00     0.300 C 
ENDBRANCH  18  19
ENDBRANCH  15  18
ENDBRANCH   9  12
ENDBRANCH   5   8
BRANCH   1  27
ATOM     27  N13 STI A1001     -39.547 159.879  -1.201  1.00  0.00    -0.191 N 
ATOM     28  H   STI A1001     -39.597 159.308  -2.002  1.00  0.00     0.184 HD
BRANCH  27  29
ATOM     29  C9  STI A1001     -39.236 161.159  -1.372  1.00  0.00     0.679 A 
ATOM     30  N10 STI A1001     -39.153 161.993  -0.341  1.00  0.00    -0.223 N 
ATOM     31  C11 STI A1001     -38.830 163.314  -0.545  1.00  0.00     0.167 A 
ATOM     32  H10 STI A1001     -39.329 161.654   0.604  1.00  0.00     0.178 HD
ATOM     33  C12 STI A1001     -38.607 163.760  -1.828  1.00  0.00     0.024 A 
ATOM     34  C7  STI A1001     -38.691 162.875  -2.883  1.00  0.00     0.058 A 
ATOM     35  C5  STI A1001     -38.478 163.327  -4.183  1.00  0.00     0.006 A 
ATOM     36  N8  STI A1001     -39.014 161.608  -2.624  1.00  0.00    -0.191 N 
ATOM     37  C6  STI A1001     -37.967 164.591  -4.424  1.00  0.00     0.016 A 
ATOM     38  C4  STI A1001     -38.796 162.517  -5.254  1.00  0.00     0.101 A 
ATOM     39  C1  STI A1001     -37.781 165.018  -5.734  1.00  0.00     0.018 A 
ATOM     40  C2  STI A1001     -38.097 164.198  -6.807  1.00  0.00     0.087 A 
ATOM     41  N3  STI A1001     -38.615 162.939  -6.560  1.00  0.00    -0.374 N 
ATOM     42  H3  STI A1001     -38.863 162.325  -7.337  1.00  0.00     0.164 HD
ATOM     43  H8  STI A1001     -39.096 160.953  -3.402  1.00  0.00     0.184 HD
ENDBRANCH  27  29
ENDBRANCH   1  27
TORSDOF 6
ENDMDL
MODEL 4
REMARK VINA RESULT:    -6.028      2.300     12.628
REMARK INTER + INTRA:          -9.016
REMARK INTER:                  -8.197
REMARK INTRA:                  -0.819
REMARK UNBOUND:                -0.874
REMARK  6 active torsions:
REMARK  status: ('A' for Active; 'I' for Inactive)
REMARK    1  A    between atoms: C9_13  and  N13_16 
REMARK    2  A    between atoms: N13_16  and  C14_17 
REMARK    3  A    between atoms: C16_21  and  N21_23 
REMARK       I    between atoms: N21_23  and  C22_24 
REMARK    4  A    between atoms: C22_24  and  C23_25 
REMARK    5  A    between atoms: C27_28  and  C46_31 
REMARK    6  A    between atoms: C46_31  and  N48_32 
ROOT
ATOM      1  C14 STI A1001     -37.175 155.399   5.444  1.00  0.00     0.057 A 
ATOM      2  C19 STI A1001     -36.286 156.240   6.112  1.00  0.00    -0.035 A 
ATOM      3  C18 STI A1001     -35.821 157.365   5.473  1.00  0.00     0.011 A 
ATOM      4  C17 STI A1001     -36.248 157.686   4.197  1.00  0.00     0.030 A 
ATOM      5  C16 STI A1001     -37.135 156.885   3.506  1.00  0.00     0.037 A 
ATOM      6  C15 STI A1001     -37.609 155.741   4.159  1.00  0.00     0.060 A 
ATOM      7  C20 STI A1001     -35.816 155.974   7.385  1.00  0.00     0.050 C 
ENDROOT
BRANCH   5   8
ATOM      8  N21 STI A1001     -37.502 157.321   2.281  1.00  0.00    -0.323 N 
ATOM      9  C22 STI A1001     -38.552 158.126   2.052  1.00  0.00     0.256 C 
ATOM     10  O29 STI A1001     -39.298 158.548   2.920  1.00  0.00    -0.267 OA
ATOM     11  H   STI A1001     -36.967 157.030   1.507  1.00  0.00     0.169 HD
BRANCH   9  12
ATOM     12  C23 STI A1001     -38.746 158.518   0.712  1.00  0.00     0.032 A 
ATOM     13  C25 STI A1001     -39.855 159.294   0.402  1.00  0.00     0.017 A 
ATOM     14  C26 STI A1001     -40.117 159.731  -0.896  1.00  0.00     0.010 A 
ATOM     15  C27 STI A1001     -39.248 159.418  -1.928  1.00  0.00    -0.030 A 
ATOM     16  C28 STI A1001     -38.120 158.663  -1.624  1.00  0.00     0.010 A 
ATOM     17  C29 STI A1001     -37.866 158.216  -0.320  1.00  0.00     0.017 A 
BRANCH  15  18
ATOM     18  C46 STI A1001     -39.516 159.874  -3.233  1.00  0.00     0.311 C 
BRANCH  18  19
ATOM     19  N48 STI A1001     -38.805 161.114  -3.573  1.00  0.00     0.095 N 
ATOM     20  C53 STI A1001     -38.666 161.290  -5.017  1.00  0.00     0.300 C 
ATOM     21  C52 STI A1001     -37.818 162.485  -5.327  1.00  0.00     0.264 C 
ATOM     22  N51 STI A1001     -38.402 163.691  -4.736  1.00  0.00    -0.072 N 
ATOM     23  C54 STI A1001     -37.591 164.852  -5.092  1.00  0.00     0.269 C 
ATOM     24  C50 STI A1001     -38.552 163.546  -3.283  1.00  0.00     0.264 C 
ATOM     25  H   STI A1001     -39.339 163.831  -5.113  1.00  0.00     0.279 HD
ATOM     26  C49 STI A1001     -39.399 162.314  -2.964  1.00  0.00     0.300 C 
ENDBRANCH  18  19
ENDBRANCH  15  18
ENDBRANCH   9  12
ENDBRANCH   5   8
BRANCH   1  27
ATOM     27  N13 STI A1001     -37.600 154.335   6.140  1.00  0.00    -0.191 N 
ATOM     28  H   STI A1001     -38.209 154.494   6.897  1.00  0.00     0.184 HD
BRANCH  27  29
ATOM     29  C9  STI A1001     -37.257 153.079   5.877  1.00  0.00     0.679 A 
ATOM     30  N10 STI A1001     -36.021 152.764   5.504  1.00  0.00    -0.223 N 
ATOM     31  C11 STI A1001     -35.691 151.456   5.237  1.00  0.00     0.167 A 
ATOM     32  H10 STI A1001     -35.315 153.495   5.415  1.00  0.00     0.178 HD
ATOM     33  C12 STI A1001     -36.659 150.485   5.348  1.00  0.00     0.024 A 
ATOM     34  C7  STI A1001     -37.934 150.832   5.744  1.00  0.00     0.058 A 
ATOM     35  C5  STI A1001     -38.917 149.851   5.846  1.00  0.00     0.006 A 
ATOM     36  N8  STI A1001     -38.196 152.117   5.984  1.00  0.00    -0.191 N 
ATOM     37  C6  STI A1001     -38.594 148.506   5.775  1.00  0.00     0.016 A 
ATOM     38  C4  STI A1001     -40.239 150.215   6.001  1.00  0.00     0.101 A 
ATOM     39  C1  STI A1001     -39.601 147.553   5.864  1.00  0.00     0.018 A 
ATOM     40  C2  STI A1001     -40.927 147.924   6.026  1.00  0.00     0.087 A 
ATOM     41  N3  STI A1001     -41.246 149.269   6.087  1.00  0.00    -0.374 N 
ATOM     42  H3  STI A1001     -42.218 149.562   6.196  1.00  0.00     0.164 HD
ATOM     43  H8  STI A1001     -39.142 152.382   6.259  1.00  0.00     0.184 HD
ENDBRANCH  27  29
ENDBRANCH   1  27
TORSDOF 6
ENDMDL
MODEL 5
REMARK VINA RESULT:    -5.681      1.710     12.843
REMARK INTER + INTRA:          -8.547
REMARK INTER:                  -7.975
REMARK INTRA:                  -0.572
REMARK UNBOUND:                -0.874
REMARK  6 active torsions:
REMARK  status: ('A' for Active; 'I' for Inactive)
REMARK    1  A    between atoms: C9_13  and  N13_16 
REMARK    2  A    between atoms: N13_16  and  C14_17 
REMARK    3  A    between atoms: C16_21  and  N21_23 
REMARK       I    between atoms: N21_23  and  C22_24 
REMARK    4  A    between atoms: C22_24  and  C23_25 
REMARK    5  A    between atoms: C27_28  and  C46_31 
REMARK    6  A    between atoms: C46_31  and  N48_32 
ROOT
ATOM      1  C14 STI A1001     -37.126 155.234   5.664  1.00  0.00     0.057 A 
ATOM      2  C19 STI A1001     -36.178 156.033   6.301  1.00  0.00    -0.035 A 
ATOM      3  C18 STI A1001     -35.712 157.158   5.662  1.00  0.00     0.011 A 
ATOM      4  C17 STI A1001     -36.195 157.519   4.417  1.00  0.00     0.030 A 
ATOM      5  C16 STI A1001     -37.141 156.761   3.757  1.00  0.00     0.037 A 
ATOM      6  C15 STI A1001     -37.616 155.618   4.411  1.00  0.00     0.060 A 
ATOM      7  C20 STI A1001     -35.650 155.724   7.542  1.00  0.00     0.050 C 
ENDROOT
BRANCH   5   8
ATOM      8  N21 STI A1001     -37.558 157.235   2.563  1.00  0.00    -0.323 N 
ATOM      9  C22 STI A1001     -38.453 158.225   2.417  1.00  0.00     0.256 C 
ATOM     10  O29 STI A1001     -38.998 158.802   3.343  1.00  0.00    -0.267 OA
ATOM     11  H   STI A1001     -37.182 156.829   1.748  1.00  0.00     0.169 HD
BRANCH   9  12
ATOM     12  C23 STI A1001     -38.724 158.620   1.091  1.00  0.00     0.032 A 
ATOM     13  C25 STI A1001     -37.957 158.078   0.068  1.00  0.00     0.017 A 
ATOM     14  C26 STI A1001     -38.165 158.408  -1.271  1.00  0.00     0.010 A 
ATOM     15  C27 STI A1001     -39.177 159.284  -1.626  1.00  0.00    -0.030 A 
ATOM     16  C28 STI A1001     -39.967 159.812  -0.611  1.00  0.00     0.010 A 
ATOM     17  C29 STI A1001     -39.749 159.487   0.734  1.00  0.00     0.017 A 
BRANCH  15  18
ATOM     18  C46 STI A1001     -39.386 159.601  -2.983  1.00  0.00     0.311 C 
BRANCH  18  19
ATOM     19  N48 STI A1001     -38.785 160.881  -3.379  1.00  0.00     0.095 N 
ATOM     20  C53 STI A1001     -38.528 160.946  -4.816  1.00  0.00     0.300 C 
ATOM     21  C52 STI A1001     -37.789 162.200  -5.168  1.00  0.00     0.264 C 
ATOM     22  N51 STI A1001     -38.555 163.377  -4.750  1.00  0.00    -0.072 N 
ATOM     23  C54 STI A1001     -37.845 164.589  -5.147  1.00  0.00     0.269 C 
ATOM     24  C50 STI A1001     -38.828 163.343  -3.308  1.00  0.00     0.264 C 
ATOM     25  H   STI A1001     -39.462 163.373  -5.218  1.00  0.00     0.279 HD
ATOM     26  C49 STI A1001     -39.562 162.052  -2.944  1.00  0.00     0.300 C 
ENDBRANCH  18  19
ENDBRANCH  15  18
ENDBRANCH   9  12
ENDBRANCH   5   8
BRANCH   1  27
ATOM     27  N13 STI A1001     -37.548 154.168   6.360  1.00  0.00    -0.191 N 
ATOM     28  H   STI A1001     -37.964 154.328   7.238  1.00  0.00     0.184 HD
BRANCH  27  29
ATOM     29  C9  STI A1001     -37.443 152.911   5.944  1.00  0.00     0.679 A 
ATOM     30  N10 STI A1001     -38.172 152.455   4.931  1.00  0.00    -0.223 N 
ATOM     31  C11 STI A1001     -38.044 151.149   4.520  1.00  0.00     0.167 A 
ATOM     32  H10 STI A1001     -38.828 153.075   4.457  1.00  0.00     0.178 HD
ATOM     33  C12 STI A1001     -37.163 150.322   5.179  1.00  0.00     0.024 A 
ATOM     34  C7  STI A1001     -36.411 150.818   6.223  1.00  0.00     0.058 A 
ATOM     35  C5  STI A1001     -35.528 149.979   6.898  1.00  0.00     0.006 A 
ATOM     36  N8  STI A1001     -36.582 152.091   6.580  1.00  0.00    -0.191 N 
ATOM     37  C6  STI A1001     -35.223 148.720   6.408  1.00  0.00     0.016 A 
ATOM     38  C4  STI A1001     -34.958 150.392   8.085  1.00  0.00     0.101 A 
ATOM     39  C1  STI A1001     -34.350 147.901   7.114  1.00  0.00     0.018 A 
ATOM     40  C2  STI A1001     -33.775 148.322   8.303  1.00  0.00     0.087 A 
ATOM     41  N3  STI A1001     -34.089 149.578   8.793  1.00  0.00    -0.374 N 
ATOM     42  H3  STI A1001     -33.684 149.902   9.672  1.00  0.00     0.164 HD
ATOM     43  H8  STI A1001     -36.041 152.458   7.363  1.00  0.00     0.184 HD
ENDBRANCH  27  29
ENDBRANCH   1  27
TORSDOF 6
ENDMDL
