MODEL 1
REMARK VINA RESULT:    -4.672      0.000      0.000
REMARK INTER + INTRA:          -9.303
REMARK INTER:                  -7.404
REMARK INTRA:                  -1.899
REMARK UNBOUND:                -1.899
REMARK  10 active torsions:
REMARK  status: ('A' for Active; 'I' for Inactive)
REMARK    1  A    between atoms: C2_2  and  N25_25 
REMARK    2  A    between atoms: C4_5  and  N8_10 
REMARK    3  A    between atoms: N8_10  and  C10_11 
REMARK    4  A    between atoms: C12_13  and  N16_17 
REMARK       I    between atoms: N16_17  and  C18_18 
REMARK       I    between atoms: C18_18  and  N20_20 
REMARK    5  A    between atoms: N25_25  and  C27_26 
REMARK    6  A    between atoms: C27_26  and  C28_27 
REMARK    7  A    between atoms: C28_27  and  C33_31 
REMARK    8  A    between atoms: N29_28  and  C33_31 
REMARK       I    between atoms: N29_28  and  C31_29 
REMARK    9  A    between atoms: C31_29  and  C34_32 
REMARK   10  A    between atoms: C34_32  and  C37_35 
REMARK       I    between atoms: C37_35  and  N39_37 
ROOT
ATOM      1  C1  LI8 A 501      -3.357  40.023  45.765  1.00  0.00     0.071 A 
ATOM      2  C2  LI8 A 501      -3.155  41.174  44.930  1.00  0.00     0.135 A 
ATOM      3  N3  LI8 A 501      -1.993  41.853  45.074  1.00  0.00    -0.175 N 
ATOM      4  H3  LI8 A 501      -1.839  42.676  44.493  1.00  0.00     0.186 HD
ATOM      5  C4  LI8 A 501      -1.027  41.493  45.949  1.00  0.00     0.684 A 
ATOM      6  N5  LI8 A 501      -1.220  40.403  46.712  1.00  0.00    -0.200 N 
ATOM      7  H5  LI8 A 501      -0.488  40.123  47.364  1.00  0.00     0.183 HD
ATOM      8  C6  LI8 A 501      -2.338  39.672  46.648  1.00  0.00     0.129 A 
ATOM      9 BR7  LI8 A 501      -4.907  38.981  45.775  1.00  0.00    -0.046 Br
ENDROOT
BRANCH   2  10
ATOM     10  N25 LI8 A 501      -4.088  41.596  44.033  1.00  0.00    -0.375 N 
ATOM     11  H   LI8 A 501      -3.878  41.482  43.078  1.00  0.00     0.161 HD
BRANCH  10  12
ATOM     12  C27 LI8 A 501      -5.345  42.193  44.361  1.00  0.00     0.123 C 
BRANCH  12  13
ATOM     13  C28 LI8 A 501      -5.509  43.594  43.735  1.00  0.00     0.039 C 
BRANCH  13  14
ATOM     14  C33 LI8 A 501      -4.841  44.728  44.545  1.00  0.00     0.124 C 
BRANCH  14  15
ATOM     15  N29 LI8 A 501      -5.058  46.030  43.972  1.00  0.00    -0.360 N 
ATOM     16  C31 LI8 A 501      -4.115  46.784  43.335  1.00  0.00     0.234 C 
ATOM     17  O32 LI8 A 501      -2.933  46.309  43.244  1.00  0.00    -0.272 OA
ATOM     18  H   LI8 A 501      -5.963  46.410  44.046  1.00  0.00     0.162 HD
BRANCH  16  19
ATOM     19  C34 LI8 A 501      -4.409  48.161  42.713  1.00  0.00     0.114 C 
ATOM     20  C36 LI8 A 501      -4.143  49.348  43.714  1.00  0.00     0.035 C 
ATOM     21  C35 LI8 A 501      -5.924  48.230  42.323  1.00  0.00     0.035 C 
BRANCH  19  22
ATOM     22  C37 LI8 A 501      -3.617  48.335  41.465  1.00  0.00     0.232 C 
ATOM     23  O38 LI8 A 501      -3.210  49.448  41.055  1.00  0.00    -0.272 OA
ATOM     24  N39 LI8 A 501      -3.303  47.299  40.694  1.00  0.00    -0.369 N 
ATOM     25  H   LI8 A 501      -3.587  46.392  40.949  1.00  0.00     0.159 HD
ATOM     26  H   LI8 A 501      -2.786  47.440  39.868  1.00  0.00     0.159 HD
ENDBRANCH  19  22
ENDBRANCH  16  19
ENDBRANCH  14  15
ENDBRANCH  13  14
ENDBRANCH  12  13
ENDBRANCH  10  12
ENDBRANCH   2  10
BRANCH   5  27
ATOM     27  N8  LI8 A 501       0.127  42.147  46.107  1.00  0.00    -0.192 N 
ATOM     28  H   LI8 A 501       0.935  41.633  45.878  1.00  0.00     0.184 HD
BRANCH  27  29
ATOM     29  C10 LI8 A 501       0.347  43.398  46.529  1.00  0.00     0.051 A 
ATOM     30  C11 LI8 A 501       0.598  44.529  45.684  1.00  0.00     0.059 A 
ATOM     31  C12 LI8 A 501       0.814  45.812  46.242  1.00  0.00     0.038 A 
ATOM     32  C13 LI8 A 501       0.783  45.949  47.664  1.00  0.00     0.029 A 
ATOM     33  C14 LI8 A 501       0.539  44.845  48.505  1.00  0.00     0.004 A 
ATOM     34  C15 LI8 A 501       0.317  43.579  47.930  1.00  0.00     0.030 A 
BRANCH  31  35
ATOM     35  N16 LI8 A 501       1.014  46.851  45.399  1.00  0.00    -0.309 N 
ATOM     36  C18 LI8 A 501       0.147  47.767  44.971  1.00  0.00     0.322 C 
ATOM     37  O19 LI8 A 501      -1.029  47.763  45.392  1.00  0.00    -0.247 OA
ATOM     38  N20 LI8 A 501       0.507  48.689  44.052  1.00  0.00    -0.334 N 
ATOM     39  C24 LI8 A 501      -0.392  49.636  43.483  1.00  0.00     0.127 C 
ATOM     40  C21 LI8 A 501       1.796  48.797  43.463  1.00  0.00     0.127 C 
ATOM     41  C23 LI8 A 501       0.004  49.639  41.999  1.00  0.00     0.022 C 
ATOM     42  C22 LI8 A 501       1.521  49.285  42.018  1.00  0.00     0.022 C 
ATOM     43  H   LI8 A 501       1.930  46.942  45.052  1.00  0.00     0.170 HD
ENDBRANCH  31  35
ENDBRANCH  27  29
ENDBRANCH   5  27
TORSDOF 10
ENDMDL
MODEL 2
REMARK VINA RESULT:    -4.565      2.865      8.166
REMARK INTER + INTRA:          -9.133
REMARK INTER:                  -6.539
REMARK INTRA:                  -2.595
REMARK UNBOUND:                -1.899
REMARK  10 active torsions:
REMARK  status: ('A' for Active; 'I' for Inactive)
REMARK    1  A    between atoms: C2_2  and  N25_25 
REMARK    2  A    between atoms: C4_5  and  N8_10 
REMARK    3  A    between atoms: N8_10  and  C10_11 
REMARK    4  A    between atoms: C12_13  and  N16_17 
REMARK       I    between atoms: N16_17  and  C18_18 
REMARK       I    between atoms: C18_18  and  N20_20 
REMARK    5  A    between atoms: N25_25  and  C27_26 
REMARK    6  A    between atoms: C27_26  and  C28_27 
REMARK    7  A    between atoms: C28_27  and  C33_31 
REMARK    8  A    between atoms: N29_28  and  C33_31 
REMARK       I    between atoms: N29_28  and  C31_29 
REMARK    9  A    between atoms: C31_29  and  C34_32 
REMARK   10  A    between atoms: C34_32  and  C37_35 
REMARK       I    between atoms: C37_35  and  N39_37 
ROOT
ATOM      1  C1  LI8 A 501      -2.527  47.424  41.885  1.00  0.00     0.071 A 
ATOM      2  C2  LI8 A 501      -2.079  46.955  43.166  1.00  0.00     0.135 A 
ATOM      3  N3  LI8 A 501      -2.945  46.217  43.897  1.00  0.00    -0.175 N 
ATOM      4  H3  LI8 A 501      -2.643  45.882  44.812  1.00  0.00     0.186 HD
ATOM      5  C4  LI8 A 501      -4.190  45.899  43.475  1.00  0.00     0.684 A 
ATOM      6  N5  LI8 A 501      -4.591  46.329  42.266  1.00  0.00    -0.200 N 
ATOM      7  H5  LI8 A 501      -5.525  46.080  41.941  1.00  0.00     0.183 HD
ATOM      8  C6  LI8 A 501      -3.811  47.071  41.474  1.00  0.00     0.129 A 
ATOM      9 BR7  LI8 A 501      -1.520  48.506  40.742  1.00  0.00    -0.046 Br
ENDROOT
BRANCH   2  10
ATOM     10  N25 LI8 A 501      -0.842  47.243  43.655  1.00  0.00    -0.375 N 
ATOM     11  H   LI8 A 501      -0.075  46.791  43.235  1.00  0.00     0.161 HD
BRANCH  10  12
ATOM     12  C27 LI8 A 501      -0.562  48.145  44.728  1.00  0.00     0.123 C 
BRANCH  12  13
ATOM     13  C28 LI8 A 501       0.844  48.769  44.617  1.00  0.00     0.039 C 
BRANCH  13  14
ATOM     14  C33 LI8 A 501       1.997  47.742  44.675  1.00  0.00     0.124 C 
BRANCH  14  15
ATOM     15  N29 LI8 A 501       1.672  46.578  45.458  1.00  0.00    -0.360 N 
ATOM     16  C31 LI8 A 501       1.737  45.286  45.023  1.00  0.00     0.234 C 
ATOM     17  O32 LI8 A 501       2.104  45.080  43.817  1.00  0.00    -0.272 OA
ATOM     18  H   LI8 A 501       1.378  46.726  46.386  1.00  0.00     0.162 HD
BRANCH  16  19
ATOM     19  C34 LI8 A 501       1.407  44.075  45.912  1.00  0.00     0.114 C 
ATOM     20  C36 LI8 A 501       1.966  44.225  47.377  1.00  0.00     0.035 C 
ATOM     21  C35 LI8 A 501       2.078  42.797  45.301  1.00  0.00     0.035 C 
BRANCH  19  22
ATOM     22  C37 LI8 A 501      -0.063  43.842  45.930  1.00  0.00     0.232 C 
ATOM     23  O38 LI8 A 501      -0.904  44.703  45.578  1.00  0.00    -0.272 OA
ATOM     24  N39 LI8 A 501      -0.577  42.687  46.341  1.00  0.00    -0.369 N 
ATOM     25  H   LI8 A 501       0.019  41.960  46.633  1.00  0.00     0.159 HD
ATOM     26  H   LI8 A 501      -1.552  42.558  46.352  1.00  0.00     0.159 HD
ENDBRANCH  19  22
ENDBRANCH  16  19
ENDBRANCH  14  15
ENDBRANCH  13  14
ENDBRANCH  12  13
ENDBRANCH  10  12
ENDBRANCH   2  10
BRANCH   5  27
ATOM     27  N8  LI8 A 501      -5.061  45.171  44.180  1.00  0.00    -0.192 N 
ATOM     28  H   LI8 A 501      -5.718  45.690  44.699  1.00  0.00     0.184 HD
BRANCH  27  29
ATOM     29  C10 LI8 A 501      -5.172  43.841  44.287  1.00  0.00     0.051 A 
ATOM     30  C11 LI8 A 501      -4.083  42.927  44.471  1.00  0.00     0.059 A 
ATOM     31  C12 LI8 A 501      -4.320  41.536  44.576  1.00  0.00     0.038 A 
ATOM     32  C13 LI8 A 501      -5.666  41.066  44.487  1.00  0.00     0.029 A 
ATOM     33  C14 LI8 A 501      -6.745  41.955  44.304  1.00  0.00     0.004 A 
ATOM     34  C15 LI8 A 501      -6.489  43.336  44.211  1.00  0.00     0.030 A 
BRANCH  31  35
ATOM     35  N16 LI8 A 501      -3.260  40.721  44.782  1.00  0.00    -0.309 N 
ATOM     36  C18 LI8 A 501      -2.946  40.002  45.859  1.00  0.00     0.322 C 
ATOM     37  O19 LI8 A 501      -3.708  39.992  46.849  1.00  0.00    -0.247 OA
ATOM     38  N20 LI8 A 501      -1.790  39.307  45.918  1.00  0.00    -0.334 N 
ATOM     39  C24 LI8 A 501      -1.349  38.596  47.071  1.00  0.00     0.127 C 
ATOM     40  C21 LI8 A 501      -0.816  39.250  44.885  1.00  0.00     0.127 C 
ATOM     41  C23 LI8 A 501       0.150  38.924  47.127  1.00  0.00     0.022 C 
ATOM     42  C22 LI8 A 501       0.537  39.149  45.635  1.00  0.00     0.022 C 
ATOM     43  H   LI8 A 501      -2.630  40.648  44.029  1.00  0.00     0.170 HD
ENDBRANCH  31  35
ENDBRANCH  27  29
ENDBRANCH   5  27
TORSDOF 10
ENDMDL
MODEL 3
REMARK VINA RESULT:    -4.347      2.487      6.521
REMARK INTER + INTRA:          -8.788
REMARK INTER:                  -7.183
REMARK INTRA:                  -1.605
REMARK UNBOUND:                -1.899
REMARK  10 active torsions:
REMARK  status: ('A' for Active; 'I' for Inactive)
REMARK    1  A    between atoms: C2_2  and  N25_25 
REMARK    2  A    between atoms: C4_5  and  N8_10 
REMARK    3  A    between atoms: N8_10  and  C10_11 
REMARK    4  A    between atoms: C12_13  and  N16_17 
REMARK       I    between atoms: N16_17  and  C18_18 
REMARK       I    between atoms: C18_18  and  N20_20 
REMARK    5  A    between atoms: N25_25  and  C27_26 
REMARK    6  A    between atoms: C27_26  and  C28_27 
REMARK    7  A    between atoms: C28_27  and  C33_31 
REMARK    8  A    between atoms: N29_28  and  C33_31 
REMARK       I    between atoms: N29_28  and  C31_29 
REMARK    9  A    between atoms: C31_29  and  C34_32 
REMARK   10  A    between atoms: C34_32  and  C37_35 
REMARK       I    between atoms: C37_35  and  N39_37 
ROOT
ATOM      1  C1  LI8 A 501       1.276  45.820  47.109  1.00  0.00     0.071 A 
ATOM      2  C2  LI8 A 501       0.830  45.652  45.755  1.00  0.00     0.135 A 
ATOM      3  N3  LI8 A 501       0.826  44.396  45.251  1.00  0.00    -0.175 N 
ATOM      4  H3  LI8 A 501       0.519  44.262  44.288  1.00  0.00     0.186 HD
ATOM      5  C4  LI8 A 501       1.209  43.310  45.961  1.00  0.00     0.684 A 
ATOM      6  N5  LI8 A 501       1.607  43.479  47.234  1.00  0.00    -0.200 N 
ATOM      7  H5  LI8 A 501       1.885  42.660  47.774  1.00  0.00     0.183 HD
ATOM      8  C6  LI8 A 501       1.654  44.681  47.817  1.00  0.00     0.129 A 
ATOM      9 BR7  LI8 A 501       1.420  47.467  47.980  1.00  0.00    -0.046 Br
ENDROOT
BRANCH   2  10
ATOM     10  N25 LI8 A 501       0.438  46.701  44.981  1.00  0.00    -0.375 N 
ATOM     11  H   LI8 A 501      -0.511  46.960  45.022  1.00  0.00     0.161 HD
BRANCH  10  12
ATOM     12  C27 LI8 A 501       1.286  47.458  44.115  1.00  0.00     0.123 C 
BRANCH  12  13
ATOM     13  C28 LI8 A 501       0.902  48.952  44.079  1.00  0.00     0.039 C 
BRANCH  13  14
ATOM     14  C33 LI8 A 501      -0.113  49.315  42.973  1.00  0.00     0.124 C 
BRANCH  14  15
ATOM     15  N29 LI8 A 501      -1.467  48.967  43.317  1.00  0.00    -0.360 N 
ATOM     16  C31 LI8 A 501      -2.182  47.936  42.778  1.00  0.00     0.234 C 
ATOM     17  O32 LI8 A 501      -1.617  47.222  41.882  1.00  0.00    -0.272 OA
ATOM     18  H   LI8 A 501      -1.915  49.518  43.998  1.00  0.00     0.162 HD
BRANCH  16  19
ATOM     19  C34 LI8 A 501      -3.619  47.588  43.203  1.00  0.00     0.114 C 
ATOM     20  C36 LI8 A 501      -4.623  47.564  41.989  1.00  0.00     0.035 C 
ATOM     21  C35 LI8 A 501      -4.136  48.685  44.195  1.00  0.00     0.035 C 
BRANCH  19  22
ATOM     22  C37 LI8 A 501      -3.635  46.288  43.927  1.00  0.00     0.232 C 
ATOM     23  O38 LI8 A 501      -4.605  45.892  44.616  1.00  0.00    -0.272 OA
ATOM     24  N39 LI8 A 501      -2.593  45.463  43.893  1.00  0.00    -0.369 N 
ATOM     25  H   LI8 A 501      -1.793  45.703  43.373  1.00  0.00     0.159 HD
ATOM     26  H   LI8 A 501      -2.623  44.612  44.387  1.00  0.00     0.159 HD
ENDBRANCH  19  22
ENDBRANCH  16  19
ENDBRANCH  14  15
ENDBRANCH  13  14
ENDBRANCH  12  13
ENDBRANCH  10  12
ENDBRANCH   2  10
BRANCH   5  27
ATOM     27  N8  LI8 A 501       1.212  42.062  45.484  1.00  0.00    -0.192 N 
ATOM     28  H   LI8 A 501       2.052  41.780  45.054  1.00  0.00     0.184 HD
BRANCH  27  29
ATOM     29  C10 LI8 A 501       0.244  41.138  45.504  1.00  0.00     0.051 A 
ATOM     30  C11 LI8 A 501      -1.117  41.352  45.107  1.00  0.00     0.059 A 
ATOM     31  C12 LI8 A 501      -2.059  40.297  45.165  1.00  0.00     0.038 A 
ATOM     32  C13 LI8 A 501      -1.622  39.020  45.634  1.00  0.00     0.029 A 
ATOM     33  C14 LI8 A 501      -0.287  38.799  46.029  1.00  0.00     0.004 A 
ATOM     34  C15 LI8 A 501       0.636  39.859  45.955  1.00  0.00     0.030 A 
BRANCH  31  35
ATOM     35  N16 LI8 A 501      -3.322  40.543  44.747  1.00  0.00    -0.309 N 
ATOM     36  C18 LI8 A 501      -3.879  41.697  44.382  1.00  0.00     0.322 C 
ATOM     37  O19 LI8 A 501      -3.196  42.741  44.353  1.00  0.00    -0.247 OA
ATOM     38  N20 LI8 A 501      -5.193  41.768  44.075  1.00  0.00    -0.334 N 
ATOM     39  C24 LI8 A 501      -5.871  42.981  43.767  1.00  0.00     0.127 C 
ATOM     40  C21 LI8 A 501      -6.097  40.672  44.092  1.00  0.00     0.127 C 
ATOM     41  C23 LI8 A 501      -7.204  42.830  44.516  1.00  0.00     0.022 C 
ATOM     42  C22 LI8 A 501      -7.446  41.292  44.537  1.00  0.00     0.022 C 
ATOM     43  H   LI8 A 501      -3.914  39.757  44.708  1.00  0.00     0.170 HD
ENDBRANCH  31  35
ENDBRANCH  27  29
ENDBRANCH   5  27
TORSDOF 10
ENDMDL
MODEL 4
REMARK VINA RESULT:    -4.328      2.040      5.657
REMARK INTER + INTRA:          -8.757
REMARK INTER:                  -6.930
REMARK INTRA:                  -1.827
REMARK UNBOUND:                -1.899
REMARK  10 active torsions:
REMARK  status: ('A' for Active; 'I' for Inactive)
REMARK    1  A    between atoms: C2_2  and  N25_25 
REMARK    2  A    between atoms: C4_5  and  N8_10 
REMARK    3  A    between atoms: N8_10  and  C10_11 
REMARK    4  A    between atoms: C12_13  and  N16_17 
REMARK       I    between atoms: N16_17  and  C18_18 
REMARK       I    between atoms: C18_18  and  N20_20 
REMARK    5  A    between atoms: N25_25  and  C27_26 
REMARK    6  A    between atoms: C27_26  and  C28_27 
REMARK    7  A    between atoms: C28_27  and  C33_31 
REMARK    8  A    between atoms: N29_28  and  C33_31 
REMARK       I    between atoms: N29_28  and  C31_29 
REMARK    9  A    between atoms: C31_29  and  C34_32 
REMARK   10  A    between atoms: C34_32  and  C37_35 
REMARK       I    between atoms: C37_35  and  N39_37 
ROOT
ATOM      1  C1  LI8 A 501      -1.328  39.225  47.336  1.00  0.00     0.071 A 
ATOM      2  C2  LI8 A 501      -1.107  40.641  47.235  1.00  0.00     0.135 A 
ATOM      3  N3  LI8 A 501      -1.642  41.280  46.169  1.00  0.00    -0.175 N 
ATOM      4  H3  LI8 A 501      -1.488  42.284  46.080  1.00  0.00     0.186 HD
ATOM      5  C4  LI8 A 501      -2.371  40.655  45.216  1.00  0.00     0.684 A 
ATOM      6  N5  LI8 A 501      -2.585  39.333  45.332  1.00  0.00    -0.200 N 
ATOM      7  H5  LI8 A 501      -3.144  38.862  44.621  1.00  0.00     0.183 HD
ATOM      8  C6  LI8 A 501      -2.092  38.612  46.345  1.00  0.00     0.129 A 
ATOM      9 BR7  LI8 A 501      -0.633  38.139  48.687  1.00  0.00    -0.046 Br
ENDROOT
BRANCH   2  10
ATOM     10  N25 LI8 A 501      -0.379  41.332  48.153  1.00  0.00    -0.375 N 
ATOM     11  H   LI8 A 501      -0.632  41.229  49.099  1.00  0.00     0.161 HD
BRANCH  10  12
ATOM     12  C27 LI8 A 501       0.722  42.196  47.861  1.00  0.00     0.123 C 
BRANCH  12  13
ATOM     13  C28 LI8 A 501       0.433  43.662  48.244  1.00  0.00     0.039 C 
BRANCH  13  14
ATOM     14  C33 LI8 A 501       1.638  44.612  48.058  1.00  0.00     0.124 C 
BRANCH  14  15
ATOM     15  N29 LI8 A 501       1.359  45.703  47.161  1.00  0.00    -0.360 N 
ATOM     16  C31 LI8 A 501       1.302  45.617  45.801  1.00  0.00     0.234 C 
ATOM     17  O32 LI8 A 501       1.525  44.478  45.265  1.00  0.00    -0.272 OA
ATOM     18  H   LI8 A 501       1.197  46.587  47.564  1.00  0.00     0.162 HD
BRANCH  16  19
ATOM     19  C34 LI8 A 501       0.972  46.811  44.889  1.00  0.00     0.114 C 
ATOM     20  C36 LI8 A 501       1.707  46.735  43.497  1.00  0.00     0.035 C 
ATOM     21  C35 LI8 A 501       1.454  48.131  45.583  1.00  0.00     0.035 C 
BRANCH  19  22
ATOM     22  C37 LI8 A 501      -0.501  46.917  44.702  1.00  0.00     0.232 C 
ATOM     23  O38 LI8 A 501      -1.105  48.009  44.575  1.00  0.00    -0.272 OA
ATOM     24  N39 LI8 A 501      -1.275  45.837  44.672  1.00  0.00    -0.369 N 
ATOM     25  H   LI8 A 501      -0.875  44.943  44.765  1.00  0.00     0.159 HD
ATOM     26  H   LI8 A 501      -2.248  45.932  44.556  1.00  0.00     0.159 HD
ENDBRANCH  19  22
ENDBRANCH  16  19
ENDBRANCH  14  15
ENDBRANCH  13  14
ENDBRANCH  12  13
ENDBRANCH  10  12
ENDBRANCH   2  10
BRANCH   5  27
ATOM     27  N8  LI8 A 501      -2.907  41.266  44.157  1.00  0.00    -0.192 N 
ATOM     28  H   LI8 A 501      -2.462  41.084  43.298  1.00  0.00     0.184 HD
BRANCH  27  29
ATOM     29  C10 LI8 A 501      -3.960  42.090  44.090  1.00  0.00     0.051 A 
ATOM     30  C11 LI8 A 501      -3.916  43.464  43.681  1.00  0.00     0.059 A 
ATOM     31  C12 LI8 A 501      -5.098  44.243  43.644  1.00  0.00     0.038 A 
ATOM     32  C13 LI8 A 501      -6.330  43.629  44.028  1.00  0.00     0.029 A 
ATOM     33  C14 LI8 A 501      -6.385  42.280  44.433  1.00  0.00     0.004 A 
ATOM     34  C15 LI8 A 501      -5.199  41.520  44.454  1.00  0.00     0.030 A 
BRANCH  31  35
ATOM     35  N16 LI8 A 501      -5.006  45.524  43.219  1.00  0.00    -0.309 N 
ATOM     36  C18 LI8 A 501      -4.561  46.598  43.870  1.00  0.00     0.322 C 
ATOM     37  O19 LI8 A 501      -4.108  46.486  45.028  1.00  0.00    -0.247 OA
ATOM     38  N20 LI8 A 501      -4.626  47.826  43.311  1.00  0.00    -0.334 N 
ATOM     39  C24 LI8 A 501      -4.256  49.025  43.984  1.00  0.00     0.127 C 
ATOM     40  C21 LI8 A 501      -5.141  48.109  42.018  1.00  0.00     0.127 C 
ATOM     41  C23 LI8 A 501      -5.361  50.008  43.571  1.00  0.00     0.022 C 
ATOM     42  C22 LI8 A 501      -5.795  49.508  42.161  1.00  0.00     0.022 C 
ATOM     43  H   LI8 A 501      -5.312  45.686  42.298  1.00  0.00     0.170 HD
ENDBRANCH  31  35
ENDBRANCH  27  29
ENDBRANCH   5  27
TORSDOF 10
ENDMDL
MODEL 5
REMARK VINA RESULT:    -4.145      1.983      5.506
REMARK INTER + INTRA:          -8.467
REMARK INTER:                  -7.500
REMARK INTRA:                  -0.967
REMARK UNBOUND:                -1.899
REMARK  10 active torsions:
REMARK  status: ('A' for Active; 'I' for Inactive)
REMARK    1  A    between atoms: C2_2  and  N25_25 
REMARK    2  A    between atoms: C4_5  and  N8_10 
REMARK    3  A    between atoms: N8_10  and  C10_11 
REMARK    4  A    between atoms: C12_13  and  N16_17 
REMARK       I    between atoms: N16_17  and  C18_18 
REMARK       I    between atoms: C18_18  and  N20_20 
REMARK    5  A    between atoms: N25_25  and  C27_26 
REMARK    6  A    between atoms: C27_26  and  C28_27 
REMARK    7  A    between atoms: C28_27  and  C33_31 
REMARK    8  A    between atoms: N29_28  and  C33_31 
REMARK       I    between atoms: N29_28  and  C31_29 
REMARK    9  A    between atoms: C31_29  and  C34_32 
REMARK   10  A    between atoms: C34_32  and  C37_35 
REMARK       I    between atoms: C37_35  and  N39_37 
ROOT
ATOM      1  C1  LI8 A 501       0.286  40.020  46.639  1.00  0.00     0.071 A 
ATOM      2  C2  LI8 A 501      -0.628  41.066  47.004  1.00  0.00     0.135 A 
ATOM      3  N3  LI8 A 501      -1.900  40.967  46.554  1.00  0.00    -0.175 N 
ATOM      4  H3  LI8 A 501      -2.559  41.706  46.799  1.00  0.00     0.186 HD
ATOM      5  C4  LI8 A 501      -2.342  39.938  45.795  1.00  0.00     0.684 A 
ATOM      6  N5  LI8 A 501      -1.480  38.957  45.475  1.00  0.00    -0.200 N 
ATOM      7  H5  LI8 A 501      -1.815  38.174  44.913  1.00  0.00     0.183 HD
ATOM      8  C6  LI8 A 501      -0.202  38.968  45.866  1.00  0.00     0.129 A 
ATOM      9 BR7  LI8 A 501       2.096  39.988  47.099  1.00  0.00    -0.046 Br
ENDROOT
BRANCH   2  10
ATOM     10  N25 LI8 A 501      -0.250  42.133  47.759  1.00  0.00    -0.375 N 
ATOM     11  H   LI8 A 501      -0.923  42.515  48.368  1.00  0.00     0.161 HD
BRANCH  10  12
ATOM     12  C27 LI8 A 501       1.041  42.747  47.743  1.00  0.00     0.123 C 
BRANCH  12  13
ATOM     13  C28 LI8 A 501       0.988  44.209  47.252  1.00  0.00     0.039 C 
BRANCH  13  14
ATOM     14  C33 LI8 A 501       0.108  44.422  46.000  1.00  0.00     0.124 C 
BRANCH  14  15
ATOM     15  N29 LI8 A 501       0.535  45.538  45.197  1.00  0.00    -0.360 N 
ATOM     16  C31 LI8 A 501      -0.254  46.578  44.799  1.00  0.00     0.234 C 
ATOM     17  O32 LI8 A 501      -1.482  46.564  45.154  1.00  0.00    -0.272 OA
ATOM     18  H   LI8 A 501       1.476  45.552  44.909  1.00  0.00     0.162 HD
BRANCH  16  19
ATOM     19  C34 LI8 A 501       0.261  47.762  43.964  1.00  0.00     0.114 C 
ATOM     20  C36 LI8 A 501       0.849  47.314  42.573  1.00  0.00     0.035 C 
ATOM     21  C35 LI8 A 501       1.425  48.465  44.742  1.00  0.00     0.035 C 
BRANCH  19  22
ATOM     22  C37 LI8 A 501      -0.823  48.765  43.780  1.00  0.00     0.232 C 
ATOM     23  O38 LI8 A 501      -1.044  49.353  42.695  1.00  0.00    -0.272 OA
ATOM     24  N39 LI8 A 501      -1.626  49.110  44.782  1.00  0.00    -0.369 N 
ATOM     25  H   LI8 A 501      -1.515  48.692  45.666  1.00  0.00     0.159 HD
ATOM     26  H   LI8 A 501      -2.330  49.782  44.639  1.00  0.00     0.159 HD
ENDBRANCH  19  22
ENDBRANCH  16  19
ENDBRANCH  14  15
ENDBRANCH  13  14
ENDBRANCH  12  13
ENDBRANCH  10  12
ENDBRANCH   2  10
BRANCH   5  27
ATOM     27  N8  LI8 A 501      -3.592  39.821  45.340  1.00  0.00    -0.192 N 
ATOM     28  H   LI8 A 501      -3.947  38.902  45.321  1.00  0.00     0.184 HD
BRANCH  27  29
ATOM     29  C10 LI8 A 501      -4.435  40.767  44.907  1.00  0.00     0.051 A 
ATOM     30  C11 LI8 A 501      -4.052  42.046  44.386  1.00  0.00     0.059 A 
ATOM     31  C12 LI8 A 501      -5.032  42.970  43.951  1.00  0.00     0.038 A 
ATOM     32  C13 LI8 A 501      -6.408  42.599  44.050  1.00  0.00     0.029 A 
ATOM     33  C14 LI8 A 501      -6.797  41.345  44.563  1.00  0.00     0.004 A 
ATOM     34  C15 LI8 A 501      -5.806  40.437  44.981  1.00  0.00     0.030 A 
BRANCH  31  35
ATOM     35  N16 LI8 A 501      -4.615  44.150  43.437  1.00  0.00    -0.309 N 
ATOM     36  C18 LI8 A 501      -4.777  45.383  43.916  1.00  0.00     0.322 C 
ATOM     37  O19 LI8 A 501      -5.348  45.559  45.012  1.00  0.00    -0.247 OA
ATOM     38  N20 LI8 A 501      -4.364  46.461  43.214  1.00  0.00    -0.334 N 
ATOM     39  C24 LI8 A 501      -4.588  47.806  43.623  1.00  0.00     0.127 C 
ATOM     40  C21 LI8 A 501      -3.728  46.415  41.945  1.00  0.00     0.127 C 
ATOM     41  C23 LI8 A 501      -4.981  48.504  42.312  1.00  0.00     0.022 C 
ATOM     42  C22 LI8 A 501      -4.226  47.691  41.218  1.00  0.00     0.022 C 
ATOM     43  H   LI8 A 501      -4.122  44.089  42.587  1.00  0.00     0.170 HD
ENDBRANCH  31  35
ENDBRANCH  27  29
ENDBRANCH   5  27
TORSDOF 10
ENDMDL
MODEL 6
REMARK VINA RESULT:    -4.121      2.775      7.701
REMARK INTER + INTRA:          -8.429
REMARK INTER:                  -7.239
REMARK INTRA:                  -1.190
REMARK UNBOUND:                -1.899
REMARK  10 active torsions:
REMARK  status: ('A' for Active; 'I' for Inactive)
REMARK    1  A    between atoms: C2_2  and  N25_25 
REMARK    2  A    between atoms: C4_5  and  N8_10 
REMARK    3  A    between atoms: N8_10  and  C10_11 
REMARK    4  A    between atoms: C12_13  and  N16_17 
REMARK       I    between atoms: N16_17  and  C18_18 
REMARK       I    between atoms: C18_18  and  N20_20 
REMARK    5  A    between atoms: N25_25  and  C27_26 
REMARK    6  A    between atoms: C27_26  and  C28_27 
REMARK    7  A    between atoms: C28_27  and  C33_31 
REMARK    8  A    between atoms: N29_28  and  C33_31 
REMARK       I    between atoms: N29_28  and  C31_29 
REMARK    9  A    between atoms: C31_29  and  C34_32 
REMARK   10  A    between atoms: C34_32  and  C37_35 
REMARK       I    between atoms: C37_35  and  N39_37 
ROOT
ATOM      1  C1  LI8 A 501      -5.555  47.498  42.548  1.00  0.00     0.071 A 
ATOM      2  C2  LI8 A 501      -4.728  46.853  43.528  1.00  0.00     0.135 A 
ATOM      3  N3  LI8 A 501      -5.230  45.760  44.147  1.00  0.00    -0.175 N 
ATOM      4  H3  LI8 A 501      -4.657  45.295  44.851  1.00  0.00     0.186 HD
ATOM      5  C4  LI8 A 501      -6.455  45.252  43.879  1.00  0.00     0.684 A 
ATOM      6  N5  LI8 A 501      -7.213  45.854  42.946  1.00  0.00    -0.200 N 
ATOM      7  H5  LI8 A 501      -8.132  45.465  42.734  1.00  0.00     0.183 HD
ATOM      8  C6  LI8 A 501      -6.807  46.944  42.286  1.00  0.00     0.129 A 
ATOM      9 BR7  LI8 A 501      -5.086  49.050  41.622  1.00  0.00    -0.046 Br
ENDROOT
BRANCH   2  10
ATOM     10  N25 LI8 A 501      -3.489  47.314  43.853  1.00  0.00    -0.375 N 
ATOM     11  H   LI8 A 501      -2.720  46.893  43.403  1.00  0.00     0.161 HD
BRANCH  10  12
ATOM     12  C27 LI8 A 501      -3.209  48.356  44.790  1.00  0.00     0.123 C 
BRANCH  12  13
ATOM     13  C28 LI8 A 501      -2.664  49.627  44.107  1.00  0.00     0.039 C 
BRANCH  13  14
ATOM     14  C33 LI8 A 501      -1.153  49.573  43.788  1.00  0.00     0.124 C 
BRANCH  14  15
ATOM     15  N29 LI8 A 501      -0.416  48.739  44.700  1.00  0.00    -0.360 N 
ATOM     16  C31 LI8 A 501       0.070  47.494  44.422  1.00  0.00     0.234 C 
ATOM     17  O32 LI8 A 501      -0.153  47.013  43.259  1.00  0.00    -0.272 OA
ATOM     18  H   LI8 A 501      -0.248  49.096  45.602  1.00  0.00     0.162 HD
BRANCH  16  19
ATOM     19  C34 LI8 A 501       0.879  46.656  45.426  1.00  0.00     0.114 C 
ATOM     20  C36 LI8 A 501       1.485  47.523  46.593  1.00  0.00     0.035 C 
ATOM     21  C35 LI8 A 501       2.088  45.995  44.680  1.00  0.00     0.035 C 
BRANCH  19  22
ATOM     22  C37 LI8 A 501       0.035  45.557  45.969  1.00  0.00     0.232 C 
ATOM     23  O38 LI8 A 501       0.021  45.229  47.179  1.00  0.00    -0.272 OA
ATOM     24  N39 LI8 A 501      -0.758  44.839  45.180  1.00  0.00    -0.369 N 
ATOM     25  H   LI8 A 501      -0.803  45.036  44.217  1.00  0.00     0.159 HD
ATOM     26  H   LI8 A 501      -1.302  44.111  45.560  1.00  0.00     0.159 HD
ENDBRANCH  19  22
ENDBRANCH  16  19
ENDBRANCH  14  15
ENDBRANCH  13  14
ENDBRANCH  12  13
ENDBRANCH  10  12
ENDBRANCH   2  10
BRANCH   5  27
ATOM     27  N8  LI8 A 501      -6.970  44.174  44.477  1.00  0.00    -0.192 N 
ATOM     28  H   LI8 A 501      -7.801  44.333  44.983  1.00  0.00     0.184 HD
BRANCH  27  29
ATOM     29  C10 LI8 A 501      -6.526  42.912  44.492  1.00  0.00     0.051 A 
ATOM     30  C11 LI8 A 501      -5.152  42.515  44.597  1.00  0.00     0.059 A 
ATOM     31  C12 LI8 A 501      -4.797  41.145  44.607  1.00  0.00     0.038 A 
ATOM     32  C13 LI8 A 501      -5.837  40.171  44.503  1.00  0.00     0.029 A 
ATOM     33  C14 LI8 A 501      -7.191  40.549  44.397  1.00  0.00     0.004 A 
ATOM     34  C15 LI8 A 501      -7.524  41.917  44.398  1.00  0.00     0.030 A 
BRANCH  31  35
ATOM     35  N16 LI8 A 501      -3.489  40.825  44.742  1.00  0.00    -0.309 N 
ATOM     36  C18 LI8 A 501      -2.827  40.425  45.826  1.00  0.00     0.322 C 
ATOM     37  O19 LI8 A 501      -3.433  40.256  46.904  1.00  0.00    -0.247 OA
ATOM     38  N20 LI8 A 501      -1.490  40.232  45.793  1.00  0.00    -0.334 N 
ATOM     39  C24 LI8 A 501      -0.708  39.896  46.934  1.00  0.00     0.127 C 
ATOM     40  C21 LI8 A 501      -0.667  40.413  44.649  1.00  0.00     0.127 C 
ATOM     41  C23 LI8 A 501       0.543  40.769  46.764  1.00  0.00     0.022 C 
ATOM     42  C22 LI8 A 501       0.679  40.929  45.221  1.00  0.00     0.022 C 
ATOM     43  H   LI8 A 501      -2.950  40.898  43.921  1.00  0.00     0.170 HD
ENDBRANCH  31  35
ENDBRANCH  27  29
ENDBRANCH   5  27
TORSDOF 10
ENDMDL
MODEL 7
REMARK VINA RESULT:    -4.094      2.716      5.918
REMARK INTER + INTRA:          -8.386
REMARK INTER:                  -8.086
REMARK INTRA:                  -0.300
REMARK UNBOUND:                -1.899
REMARK  10 active torsions:
REMARK  status: ('A' for Active; 'I' for Inactive)
REMARK    1  A    between atoms: C2_2  and  N25_25 
REMARK    2  A    between atoms: C4_5  and  N8_10 
REMARK    3  A    between atoms: N8_10  and  C10_11 
REMARK    4  A    between atoms: C12_13  and  N16_17 
REMARK       I    between atoms: N16_17  and  C18_18 
REMARK       I    between atoms: C18_18  and  N20_20 
REMARK    5  A    between atoms: N25_25  and  C27_26 
REMARK    6  A    between atoms: C27_26  and  C28_27 
REMARK    7  A    between atoms: C28_27  and  C33_31 
REMARK    8  A    between atoms: N29_28  and  C33_31 
REMARK       I    between atoms: N29_28  and  C31_29 
REMARK    9  A    between atoms: C31_29  and  C34_32 
REMARK   10  A    between atoms: C34_32  and  C37_35 
REMARK       I    between atoms: C37_35  and  N39_37 
ROOT
ATOM      1  C1  LI8 A 501      -8.440  43.369  43.607  1.00  0.00     0.071 A 
ATOM      2  C2  LI8 A 501      -7.033  43.416  43.889  1.00  0.00     0.135 A 
ATOM      3  N3  LI8 A 501      -6.424  42.253  44.217  1.00  0.00    -0.175 N 
ATOM      4  H3  LI8 A 501      -5.426  42.271  44.427  1.00  0.00     0.186 HD
ATOM      5  C4  LI8 A 501      -7.072  41.067  44.280  1.00  0.00     0.684 A 
ATOM      6  N5  LI8 A 501      -8.386  41.034  43.997  1.00  0.00    -0.200 N 
ATOM      7  H5  LI8 A 501      -8.874  40.139  44.032  1.00  0.00     0.183 HD
ATOM      8  C6  LI8 A 501      -9.077  42.131  43.670  1.00  0.00     0.129 A 
ATOM      9 BR7  LI8 A 501      -9.487  44.860  43.195  1.00  0.00    -0.046 Br
ENDROOT
BRANCH   2  10
ATOM     10  N25 LI8 A 501      -6.320  44.574  43.851  1.00  0.00    -0.375 N 
ATOM     11  H   LI8 A 501      -6.640  45.280  43.243  1.00  0.00     0.161 HD
BRANCH  10  12
ATOM     12  C27 LI8 A 501      -5.147  44.854  44.618  1.00  0.00     0.123 C 
BRANCH  12  13
ATOM     13  C28 LI8 A 501      -3.869  44.297  43.956  1.00  0.00     0.039 C 
BRANCH  13  14
ATOM     14  C33 LI8 A 501      -3.183  45.280  42.981  1.00  0.00     0.124 C 
BRANCH  14  15
ATOM     15  N29 LI8 A 501      -3.379  46.659  43.345  1.00  0.00    -0.360 N 
ATOM     16  C31 LI8 A 501      -4.040  47.591  42.598  1.00  0.00     0.234 C 
ATOM     17  O32 LI8 A 501      -4.519  47.222  41.472  1.00  0.00    -0.272 OA
ATOM     18  H   LI8 A 501      -3.005  46.956  44.206  1.00  0.00     0.162 HD
BRANCH  16  19
ATOM     19  C34 LI8 A 501      -4.247  49.047  43.047  1.00  0.00     0.114 C 
ATOM     20  C36 LI8 A 501      -5.680  49.596  42.690  1.00  0.00     0.035 C 
ATOM     21  C35 LI8 A 501      -3.215  49.961  42.302  1.00  0.00     0.035 C 
BRANCH  19  22
ATOM     22  C37 LI8 A 501      -3.983  49.173  44.506  1.00  0.00     0.232 C 
ATOM     23  O38 LI8 A 501      -2.893  49.573  44.980  1.00  0.00    -0.272 OA
ATOM     24  N39 LI8 A 501      -4.904  48.847  45.408  1.00  0.00    -0.369 N 
ATOM     25  H   LI8 A 501      -5.786  48.524  45.114  1.00  0.00     0.159 HD
ATOM     26  H   LI8 A 501      -4.704  48.930  46.368  1.00  0.00     0.159 HD
ENDBRANCH  19  22
ENDBRANCH  16  19
ENDBRANCH  14  15
ENDBRANCH  13  14
ENDBRANCH  12  13
ENDBRANCH  10  12
ENDBRANCH   2  10
BRANCH   5  27
ATOM     27  N8  LI8 A 501      -6.491  39.908  44.601  1.00  0.00    -0.192 N 
ATOM     28  H   LI8 A 501      -6.998  39.101  44.351  1.00  0.00     0.184 HD
BRANCH  27  29
ATOM     29  C10 LI8 A 501      -5.322  39.680  45.213  1.00  0.00     0.051 A 
ATOM     30  C11 LI8 A 501      -4.206  40.579  45.235  1.00  0.00     0.059 A 
ATOM     31  C12 LI8 A 501      -3.016  40.235  45.920  1.00  0.00     0.038 A 
ATOM     32  C13 LI8 A 501      -2.954  38.970  46.582  1.00  0.00     0.029 A 
ATOM     33  C14 LI8 A 501      -4.044  38.077  46.566  1.00  0.00     0.004 A 
ATOM     34  C15 LI8 A 501      -5.222  38.443  45.886  1.00  0.00     0.030 A 
BRANCH  31  35
ATOM     35  N16 LI8 A 501      -2.005  41.134  45.938  1.00  0.00    -0.309 N 
ATOM     36  C18 LI8 A 501      -0.844  41.084  46.589  1.00  0.00     0.322 C 
ATOM     37  O19 LI8 A 501      -0.551  40.080  47.272  1.00  0.00    -0.247 OA
ATOM     38  N20 LI8 A 501       0.016  42.125  46.557  1.00  0.00    -0.334 N 
ATOM     39  C24 LI8 A 501       1.228  42.176  47.303  1.00  0.00     0.127 C 
ATOM     40  C21 LI8 A 501      -0.196  43.339  45.850  1.00  0.00     0.127 C 
ATOM     41  C23 LI8 A 501       1.253  43.622  47.821  1.00  0.00     0.022 C 
ATOM     42  C22 LI8 A 501       0.480  44.422  46.731  1.00  0.00     0.022 C 
ATOM     43  H   LI8 A 501      -2.148  41.940  45.391  1.00  0.00     0.170 HD
ENDBRANCH  31  35
ENDBRANCH  27  29
ENDBRANCH   5  27
TORSDOF 10
ENDMDL
MODEL 8
REMARK VINA RESULT:    -3.997      1.928      2.584
REMARK INTER + INTRA:          -8.232
REMARK INTER:                  -6.063
REMARK INTRA:                  -2.169
REMARK UNBOUND:                -1.899
REMARK  10 active torsions:
REMARK  status: ('A' for Active; 'I' for Inactive)
REMARK    1  A    between atoms: C2_2  and  N25_25 
REMARK    2  A    between atoms: C4_5  and  N8_10 
REMARK    3  A    between atoms: N8_10  and  C10_11 
REMARK    4  A    between atoms: C12_13  and  N16_17 
REMARK       I    between atoms: N16_17  and  C18_18 
REMARK       I    between atoms: C18_18  and  N20_20 
REMARK    5  A    between atoms: N25_25  and  C27_26 
REMARK    6  A    between atoms: C27_26  and  C28_27 
REMARK    7  A    between atoms: C28_27  and  C33_31 
REMARK    8  A    between atoms: N29_28  and  C33_31 
REMARK       I    between atoms: N29_28  and  C31_29 
REMARK    9  A    between atoms: C31_29  and  C34_32 
REMARK   10  A    between atoms: C34_32  and  C37_35 
REMARK       I    between atoms: C37_35  and  N39_37 
ROOT
ATOM      1  C1  LI8 A 501      -0.082  40.058  45.708  1.00  0.00     0.071 A 
ATOM      2  C2  LI8 A 501      -1.126  41.015  45.472  1.00  0.00     0.135 A 
ATOM      3  N3  LI8 A 501      -1.044  42.200  46.121  1.00  0.00    -0.175 N 
ATOM      4  H3  LI8 A 501      -1.782  42.887  45.969  1.00  0.00     0.186 HD
ATOM      5  C4  LI8 A 501      -0.032  42.518  46.961  1.00  0.00     0.684 A 
ATOM      6  N5  LI8 A 501       0.948  41.620  47.159  1.00  0.00    -0.200 N 
ATOM      7  H5  LI8 A 501       1.718  41.863  47.782  1.00  0.00     0.183 HD
ATOM      8  C6  LI8 A 501       0.952  40.420  46.569  1.00  0.00     0.129 A 
ATOM      9 BR7  LI8 A 501      -0.030  38.344  44.967  1.00  0.00    -0.046 Br
ENDROOT
BRANCH   2  10
ATOM     10  N25 LI8 A 501      -2.177  40.759  44.647  1.00  0.00    -0.375 N 
ATOM     11  H   LI8 A 501      -1.974  40.595  43.697  1.00  0.00     0.161 HD
BRANCH  10  12
ATOM     12  C27 LI8 A 501      -3.550  40.708  45.040  1.00  0.00     0.123 C 
BRANCH  12  13
ATOM     13  C28 LI8 A 501      -4.474  41.431  44.037  1.00  0.00     0.039 C 
BRANCH  13  14
ATOM     14  C33 LI8 A 501      -5.103  42.731  44.585  1.00  0.00     0.124 C 
BRANCH  14  15
ATOM     15  N29 LI8 A 501      -4.553  43.918  43.984  1.00  0.00    -0.360 N 
ATOM     16  C31 LI8 A 501      -5.255  45.044  43.665  1.00  0.00     0.234 C 
ATOM     17  O32 LI8 A 501      -6.510  45.053  43.905  1.00  0.00    -0.272 OA
ATOM     18  H   LI8 A 501      -3.589  43.917  43.785  1.00  0.00     0.162 HD
BRANCH  16  19
ATOM     19  C34 LI8 A 501      -4.611  46.299  43.050  1.00  0.00     0.114 C 
ATOM     20  C36 LI8 A 501      -5.646  47.465  42.826  1.00  0.00     0.035 C 
ATOM     21  C35 LI8 A 501      -4.030  45.934  41.641  1.00  0.00     0.035 C 
BRANCH  19  22
ATOM     22  C37 LI8 A 501      -3.475  46.756  43.896  1.00  0.00     0.232 C 
ATOM     23  O38 LI8 A 501      -2.461  46.057  44.128  1.00  0.00    -0.272 OA
ATOM     24  N39 LI8 A 501      -3.481  47.952  44.475  1.00  0.00    -0.369 N 
ATOM     25  H   LI8 A 501      -4.243  48.560  44.340  1.00  0.00     0.159 HD
ATOM     26  H   LI8 A 501      -2.723  48.230  45.037  1.00  0.00     0.159 HD
ENDBRANCH  19  22
ENDBRANCH  16  19
ENDBRANCH  14  15
ENDBRANCH  13  14
ENDBRANCH  12  13
ENDBRANCH  10  12
ENDBRANCH   2  10
BRANCH   5  27
ATOM     27  N8  LI8 A 501       0.069  43.680  47.611  1.00  0.00    -0.192 N 
ATOM     28  H   LI8 A 501      -0.210  43.658  48.555  1.00  0.00     0.184 HD
BRANCH  27  29
ATOM     29  C10 LI8 A 501       0.492  44.871  47.169  1.00  0.00     0.051 A 
ATOM     30  C11 LI8 A 501       0.223  45.421  45.873  1.00  0.00     0.059 A 
ATOM     31  C12 LI8 A 501       0.720  46.697  45.514  1.00  0.00     0.038 A 
ATOM     32  C13 LI8 A 501       1.498  47.418  46.470  1.00  0.00     0.029 A 
ATOM     33  C14 LI8 A 501       1.771  46.887  47.748  1.00  0.00     0.004 A 
ATOM     34  C15 LI8 A 501       1.259  45.620  48.088  1.00  0.00     0.030 A 
BRANCH  31  35
ATOM     35  N16 LI8 A 501       0.409  47.183  44.290  1.00  0.00    -0.309 N 
ATOM     36  C18 LI8 A 501       0.118  48.431  43.927  1.00  0.00     0.322 C 
ATOM     37  O19 LI8 A 501       0.155  49.353  44.769  1.00  0.00    -0.247 OA
ATOM     38  N20 LI8 A 501      -0.257  48.718  42.662  1.00  0.00    -0.334 N 
ATOM     39  C24 LI8 A 501      -0.670  50.011  42.230  1.00  0.00     0.127 C 
ATOM     40  C21 LI8 A 501      -0.372  47.771  41.608  1.00  0.00     0.127 C 
ATOM     41  C23 LI8 A 501      -1.871  49.704  41.324  1.00  0.00     0.022 C 
ATOM     42  C22 LI8 A 501      -1.553  48.292  40.749  1.00  0.00     0.022 C 
ATOM     43  H   LI8 A 501       0.396  46.518  43.563  1.00  0.00     0.170 HD
ENDBRANCH  31  35
ENDBRANCH  27  29
ENDBRANCH   5  27
TORSDOF 10
ENDMDL
MODEL 9
REMARK VINA RESULT:    -3.987      1.226      1.489
REMARK INTER + INTRA:          -8.216
REMARK INTER:                  -6.569
REMARK INTRA:                  -1.647
REMARK UNBOUND:                -1.899
REMARK  10 active torsions:
REMARK  status: ('A' for Active; 'I' for Inactive)
REMARK    1  A    between atoms: C2_2  and  N25_25 
REMARK    2  A    between atoms: C4_5  and  N8_10 
REMARK    3  A    between atoms: N8_10  and  C10_11 
REMARK    4  A    between atoms: C12_13  and  N16_17 
REMARK       I    between atoms: N16_17  and  C18_18 
REMARK       I    between atoms: C18_18  and  N20_20 
REMARK    5  A    between atoms: N25_25  and  C27_26 
REMARK    6  A    between atoms: C27_26  and  C28_27 
REMARK    7  A    between atoms: C28_27  and  C33_31 
REMARK    8  A    between atoms: N29_28  and  C33_31 
REMARK       I    between atoms: N29_28  and  C31_29 
REMARK    9  A    between atoms: C31_29  and  C34_32 
REMARK   10  A    between atoms: C34_32  and  C37_35 
REMARK       I    between atoms: C37_35  and  N39_37 
ROOT
ATOM      1  C1  LI8 A 501      -3.858  39.589  45.894  1.00  0.00     0.071 A 
ATOM      2  C2  LI8 A 501      -3.549  40.820  45.224  1.00  0.00     0.135 A 
ATOM      3  N3  LI8 A 501      -2.337  41.373  45.462  1.00  0.00    -0.175 N 
ATOM      4  H3  LI8 A 501      -2.106  42.251  44.998  1.00  0.00     0.186 HD
ATOM      5  C4  LI8 A 501      -1.416  40.818  46.282  1.00  0.00     0.684 A 
ATOM      6  N5  LI8 A 501      -1.710  39.655  46.890  1.00  0.00    -0.200 N 
ATOM      7  H5  LI8 A 501      -1.012  39.229  47.500  1.00  0.00     0.183 HD
ATOM      8  C6  LI8 A 501      -2.884  39.037  46.725  1.00  0.00     0.129 A 
ATOM      9 BR7  LI8 A 501      -5.489  38.689  45.759  1.00  0.00    -0.046 Br
ENDROOT
BRANCH   2  10
ATOM     10  N25 LI8 A 501      -4.431  41.437  44.391  1.00  0.00    -0.375 N 
ATOM     11  H   LI8 A 501      -4.325  41.278  43.425  1.00  0.00     0.161 HD
BRANCH  10  12
ATOM     12  C27 LI8 A 501      -5.497  42.297  44.799  1.00  0.00     0.123 C 
BRANCH  12  13
ATOM     13  C28 LI8 A 501      -5.707  43.473  43.821  1.00  0.00     0.039 C 
BRANCH  13  14
ATOM     14  C33 LI8 A 501      -4.570  44.520  43.841  1.00  0.00     0.124 C 
BRANCH  14  15
ATOM     15  N29 LI8 A 501      -5.024  45.848  43.519  1.00  0.00    -0.360 N 
ATOM     16  C31 LI8 A 501      -4.235  46.959  43.444  1.00  0.00     0.234 C 
ATOM     17  O32 LI8 A 501      -2.988  46.824  43.690  1.00  0.00    -0.272 OA
ATOM     18  H   LI8 A 501      -5.984  45.964  43.338  1.00  0.00     0.162 HD
BRANCH  16  19
ATOM     19  C34 LI8 A 501      -4.767  48.352  43.067  1.00  0.00     0.114 C 
ATOM     20  C36 LI8 A 501      -6.294  48.335  42.681  1.00  0.00     0.035 C 
ATOM     21  C35 LI8 A 501      -3.989  48.870  41.809  1.00  0.00     0.035 C 
BRANCH  19  22
ATOM     22  C37 LI8 A 501      -4.513  49.312  44.175  1.00  0.00     0.232 C 
ATOM     23  O38 LI8 A 501      -5.400  50.048  44.669  1.00  0.00    -0.272 OA
ATOM     24  N39 LI8 A 501      -3.303  49.453  44.706  1.00  0.00    -0.369 N 
ATOM     25  H   LI8 A 501      -2.553  48.910  44.372  1.00  0.00     0.159 HD
ATOM     26  H   LI8 A 501      -3.157  50.100  45.433  1.00  0.00     0.159 HD
ENDBRANCH  19  22
ENDBRANCH  16  19
ENDBRANCH  14  15
ENDBRANCH  13  14
ENDBRANCH  12  13
ENDBRANCH  10  12
ENDBRANCH   2  10
BRANCH   5  27
ATOM     27  N8  LI8 A 501      -0.214  41.345  46.530  1.00  0.00    -0.192 N 
ATOM     28  H   LI8 A 501       0.540  40.714  46.475  1.00  0.00     0.184 HD
BRANCH  27  29
ATOM     29  C10 LI8 A 501       0.117  42.604  46.844  1.00  0.00     0.051 A 
ATOM     30  C11 LI8 A 501       0.412  43.645  45.903  1.00  0.00     0.059 A 
ATOM     31  C12 LI8 A 501       0.748  44.945  46.349  1.00  0.00     0.038 A 
ATOM     32  C13 LI8 A 501       0.791  45.193  47.755  1.00  0.00     0.029 A 
ATOM     33  C14 LI8 A 501       0.505  44.177  48.690  1.00  0.00     0.004 A 
ATOM     34  C15 LI8 A 501       0.164  42.892  48.225  1.00  0.00     0.030 A 
BRANCH  31  35
ATOM     35  N16 LI8 A 501       0.985  45.899  45.418  1.00  0.00    -0.309 N 
ATOM     36  C18 LI8 A 501       0.388  47.077  45.248  1.00  0.00     0.322 C 
ATOM     37  O19 LI8 A 501      -0.501  47.450  46.041  1.00  0.00    -0.247 OA
ATOM     38  N20 LI8 A 501       0.701  47.870  44.199  1.00  0.00    -0.334 N 
ATOM     39  C24 LI8 A 501       0.037  49.095  43.905  1.00  0.00     0.127 C 
ATOM     40  C21 LI8 A 501       1.667  47.565  43.203  1.00  0.00     0.127 C 
ATOM     41  C23 LI8 A 501      -0.121  49.044  42.379  1.00  0.00     0.022 C 
ATOM     42  C22 LI8 A 501       1.096  48.195  41.906  1.00  0.00     0.022 C 
ATOM     43  H   LI8 A 501       1.702  45.692  44.775  1.00  0.00     0.170 HD
ENDBRANCH  31  35
ENDBRANCH  27  29
ENDBRANCH   5  27
TORSDOF 10
ENDMDL
MODEL 10
REMARK VINA RESULT:    -3.923      2.303      5.604
REMARK INTER + INTRA:          -8.116
REMARK INTER:                  -6.860
REMARK INTRA:                  -1.255
REMARK UNBOUND:                -1.899
REMARK  10 active torsions:
REMARK  status: ('A' for Active; 'I' for Inactive)
REMARK    1  A    between atoms: C2_2  and  N25_25 
REMARK    2  A    between atoms: C4_5  and  N8_10 
REMARK    3  A    between atoms: N8_10  and  C10_11 
REMARK    4  A    between atoms: C12_13  and  N16_17 
REMARK       I    between atoms: N16_17  and  C18_18 
REMARK       I    between atoms: C18_18  and  N20_20 
REMARK    5  A    between atoms: N25_25  and  C27_26 
REMARK    6  A    between atoms: C27_26  and  C28_27 
REMARK    7  A    between atoms: C28_27  and  C33_31 
REMARK    8  A    between atoms: N29_28  and  C33_31 
REMARK       I    between atoms: N29_28  and  C31_29 
REMARK    9  A    between atoms: C31_29  and  C34_32 
REMARK   10  A    between atoms: C34_32  and  C37_35 
REMARK       I    between atoms: C37_35  and  N39_37 
ROOT
ATOM      1  C1  LI8 A 501      -7.362  42.859  44.104  1.00  0.00     0.071 A 
ATOM      2  C2  LI8 A 501      -6.007  43.006  44.556  1.00  0.00     0.135 A 
ATOM      3  N3  LI8 A 501      -5.336  41.880  44.893  1.00  0.00    -0.175 N 
ATOM      4  H3  LI8 A 501      -4.376  41.969  45.223  1.00  0.00     0.186 HD
ATOM      5  C4  LI8 A 501      -5.877  40.642  44.813  1.00  0.00     0.684 A 
ATOM      6  N5  LI8 A 501      -7.140  40.517  44.370  1.00  0.00    -0.200 N 
ATOM      7  H5  LI8 A 501      -7.545  39.583  44.298  1.00  0.00     0.183 HD
ATOM      8  C6  LI8 A 501      -7.886  41.570  44.022  1.00  0.00     0.129 A 
ATOM      9 BR7  LI8 A 501      -8.486  44.280  43.648  1.00  0.00    -0.046 Br
ENDROOT
BRANCH   2  10
ATOM     10  N25 LI8 A 501      -5.403  44.220  44.667  1.00  0.00    -0.375 N 
ATOM     11  H   LI8 A 501      -5.665  44.785  45.430  1.00  0.00     0.161 HD
BRANCH  10  12
ATOM     12  C27 LI8 A 501      -4.422  44.746  43.771  1.00  0.00     0.123 C 
BRANCH  12  13
ATOM     13  C28 LI8 A 501      -4.994  45.852  42.860  1.00  0.00     0.039 C 
BRANCH  13  14
ATOM     14  C33 LI8 A 501      -4.598  47.285  43.283  1.00  0.00     0.124 C 
BRANCH  14  15
ATOM     15  N29 LI8 A 501      -3.216  47.587  43.014  1.00  0.00    -0.360 N 
ATOM     16  C31 LI8 A 501      -2.341  48.151  43.897  1.00  0.00     0.234 C 
ATOM     17  O32 LI8 A 501      -2.777  48.451  45.060  1.00  0.00    -0.272 OA
ATOM     18  H   LI8 A 501      -2.873  47.370  42.117  1.00  0.00     0.162 HD
BRANCH  16  19
ATOM     19  C34 LI8 A 501      -0.864  48.427  43.568  1.00  0.00     0.114 C 
ATOM     20  C36 LI8 A 501      -0.513  49.962  43.592  1.00  0.00     0.035 C 
ATOM     21  C35 LI8 A 501      -0.562  47.918  42.117  1.00  0.00     0.035 C 
BRANCH  19  22
ATOM     22  C37 LI8 A 501       0.016  47.669  44.499  1.00  0.00     0.232 C 
ATOM     23  O38 LI8 A 501       0.769  46.735  44.133  1.00  0.00    -0.272 OA
ATOM     24  N39 LI8 A 501       0.043  47.939  45.800  1.00  0.00    -0.369 N 
ATOM     25  H   LI8 A 501      -0.521  48.659  46.165  1.00  0.00     0.159 HD
ATOM     26  H   LI8 A 501       0.626  47.419  46.398  1.00  0.00     0.159 HD
ENDBRANCH  19  22
ENDBRANCH  16  19
ENDBRANCH  14  15
ENDBRANCH  13  14
ENDBRANCH  12  13
ENDBRANCH  10  12
ENDBRANCH   2  10
BRANCH   5  27
ATOM     27  N8  LI8 A 501      -5.233  39.518  45.139  1.00  0.00    -0.192 N 
ATOM     28  H   LI8 A 501      -5.638  38.688  44.796  1.00  0.00     0.184 HD
BRANCH  27  29
ATOM     29  C10 LI8 A 501      -4.120  39.351  45.865  1.00  0.00     0.051 A 
ATOM     30  C11 LI8 A 501      -2.905  40.094  45.704  1.00  0.00     0.059 A 
ATOM     31  C12 LI8 A 501      -1.787  39.835  46.533  1.00  0.00     0.038 A 
ATOM     32  C13 LI8 A 501      -1.899  38.814  47.527  1.00  0.00     0.029 A 
ATOM     33  C14 LI8 A 501      -3.089  38.076  47.693  1.00  0.00     0.004 A 
ATOM     34  C15 LI8 A 501      -4.192  38.356  46.864  1.00  0.00     0.030 A 
BRANCH  31  35
ATOM     35  N16 LI8 A 501      -0.676  40.587  46.362  1.00  0.00    -0.309 N 
ATOM     36  C18 LI8 A 501      -0.172  41.538  47.147  1.00  0.00     0.322 C 
ATOM     37  O19 LI8 A 501      -0.720  41.807  48.236  1.00  0.00    -0.247 OA
ATOM     38  N20 LI8 A 501       0.911  42.251  46.768  1.00  0.00    -0.334 N 
ATOM     39  C24 LI8 A 501       1.444  43.341  47.514  1.00  0.00     0.127 C 
ATOM     40  C21 LI8 A 501       1.619  42.077  45.548  1.00  0.00     0.127 C 
ATOM     41  C23 LI8 A 501       1.778  44.372  46.426  1.00  0.00     0.022 C 
ATOM     42  C22 LI8 A 501       2.100  43.502  45.174  1.00  0.00     0.022 C 
ATOM     43  H   LI8 A 501      -0.166  40.406  45.539  1.00  0.00     0.170 HD
ENDBRANCH  31  35
ENDBRANCH  27  29
ENDBRANCH   5  27
TORSDOF 10
ENDMDL
MODEL 11
REMARK VINA RESULT:    -3.834      3.142      7.046
REMARK INTER + INTRA:          -7.974
REMARK INTER:                  -6.872
REMARK INTRA:                  -1.103
REMARK UNBOUND:                -1.899
REMARK  10 active torsions:
REMARK  status: ('A' for Active; 'I' for Inactive)
REMARK    1  A    between atoms: C2_2  and  N25_25 
REMARK    2  A    between atoms: C4_5  and  N8_10 
REMARK    3  A    between atoms: N8_10  and  C10_11 
REMARK    4  A    between atoms: C12_13  and  N16_17 
REMARK       I    between atoms: N16_17  and  C18_18 
REMARK       I    between atoms: C18_18  and  N20_20 
REMARK    5  A    between atoms: N25_25  and  C27_26 
REMARK    6  A    between atoms: C27_26  and  C28_27 
REMARK    7  A    between atoms: C28_27  and  C33_31 
REMARK    8  A    between atoms: N29_28  and  C33_31 
REMARK       I    between atoms: N29_28  and  C31_29 
REMARK    9  A    between atoms: C31_29  and  C34_32 
REMARK   10  A    between atoms: C34_32  and  C37_35 
REMARK       I    between atoms: C37_35  and  N39_37 
ROOT
ATOM      1  C1  LI8 A 501      -2.963  48.555  43.155  1.00  0.00     0.071 A 
ATOM      2  C2  LI8 A 501      -2.334  47.382  42.618  1.00  0.00     0.135 A 
ATOM      3  N3  LI8 A 501      -1.216  46.935  43.236  1.00  0.00    -0.175 N 
ATOM      4  H3  LI8 A 501      -0.753  46.107  42.861  1.00  0.00     0.186 HD
ATOM      5  C4  LI8 A 501      -0.682  47.532  44.326  1.00  0.00     0.684 A 
ATOM      6  N5  LI8 A 501      -1.291  48.619  44.831  1.00  0.00    -0.200 N 
ATOM      7  H5  LI8 A 501      -0.896  49.063  45.660  1.00  0.00     0.183 HD
ATOM      8  C6  LI8 A 501      -2.395  49.140  44.286  1.00  0.00     0.129 A 
ATOM      9 BR7  LI8 A 501      -4.474  49.375  42.425  1.00  0.00    -0.046 Br
ENDROOT
BRANCH   2  10
ATOM     10  N25 LI8 A 501      -2.813  46.736  41.520  1.00  0.00    -0.375 N 
ATOM     11  H   LI8 A 501      -2.410  46.965  40.651  1.00  0.00     0.161 HD
BRANCH  10  12
ATOM     12  C27 LI8 A 501      -3.851  45.754  41.521  1.00  0.00     0.123 C 
BRANCH  12  13
ATOM     13  C28 LI8 A 501      -3.820  44.871  42.786  1.00  0.00     0.039 C 
BRANCH  13  14
ATOM     14  C33 LI8 A 501      -5.139  44.876  43.592  1.00  0.00     0.124 C 
BRANCH  14  15
ATOM     15  N29 LI8 A 501      -5.740  43.572  43.694  1.00  0.00    -0.360 N 
ATOM     16  C31 LI8 A 501      -5.159  42.472  44.254  1.00  0.00     0.234 C 
ATOM     17  O32 LI8 A 501      -3.975  42.595  44.720  1.00  0.00    -0.272 OA
ATOM     18  H   LI8 A 501      -6.647  43.464  43.328  1.00  0.00     0.162 HD
BRANCH  16  19
ATOM     19  C34 LI8 A 501      -5.858  41.106  44.364  1.00  0.00     0.114 C 
ATOM     20  C36 LI8 A 501      -5.248  40.201  45.500  1.00  0.00     0.035 C 
ATOM     21  C35 LI8 A 501      -5.670  40.328  43.016  1.00  0.00     0.035 C 
BRANCH  19  22
ATOM     22  C37 LI8 A 501      -7.320  41.297  44.569  1.00  0.00     0.232 C 
ATOM     23  O38 LI8 A 501      -7.845  42.411  44.805  1.00  0.00    -0.272 OA
ATOM     24  N39 LI8 A 501      -8.165  40.273  44.525  1.00  0.00    -0.369 N 
ATOM     25  H   LI8 A 501      -7.829  39.365  44.344  1.00  0.00     0.159 HD
ATOM     26  H   LI8 A 501      -9.127  40.421  44.672  1.00  0.00     0.159 HD
ENDBRANCH  19  22
ENDBRANCH  16  19
ENDBRANCH  14  15
ENDBRANCH  13  14
ENDBRANCH  12  13
ENDBRANCH  10  12
ENDBRANCH   2  10
BRANCH   5  27
ATOM     27  N8  LI8 A 501       0.420  47.108  44.952  1.00  0.00    -0.192 N 
ATOM     28  H   LI8 A 501       1.269  47.346  44.514  1.00  0.00     0.184 HD
BRANCH  27  29
ATOM     29  C10 LI8 A 501       0.541  46.407  46.086  1.00  0.00     0.051 A 
ATOM     30  C11 LI8 A 501       0.119  45.050  46.274  1.00  0.00     0.059 A 
ATOM     31  C12 LI8 A 501       0.301  44.405  47.521  1.00  0.00     0.038 A 
ATOM     32  C13 LI8 A 501       0.908  45.139  48.585  1.00  0.00     0.029 A 
ATOM     33  C14 LI8 A 501       1.325  46.475  48.413  1.00  0.00     0.004 A 
ATOM     34  C15 LI8 A 501       1.143  47.096  47.162  1.00  0.00     0.030 A 
BRANCH  31  35
ATOM     35  N16 LI8 A 501      -0.085  43.113  47.634  1.00  0.00    -0.309 N 
ATOM     36  C18 LI8 A 501       0.306  42.051  46.930  1.00  0.00     0.322 C 
ATOM     37  O19 LI8 A 501       1.180  42.172  46.048  1.00  0.00    -0.247 OA
ATOM     38  N20 LI8 A 501      -0.259  40.840  47.128  1.00  0.00    -0.334 N 
ATOM     39  C24 LI8 A 501       0.044  39.687  46.350  1.00  0.00     0.127 C 
ATOM     40  C21 LI8 A 501      -1.282  40.559  48.074  1.00  0.00     0.127 C 
ATOM     41  C23 LI8 A 501      -1.335  39.047  46.131  1.00  0.00     0.022 C 
ATOM     42  C22 LI8 A 501      -2.143  39.463  47.395  1.00  0.00     0.022 C 
ATOM     43  H   LI8 A 501      -0.749  42.931  48.338  1.00  0.00     0.170 HD
ENDBRANCH  31  35
ENDBRANCH  27  29
ENDBRANCH   5  27
TORSDOF 10
ENDMDL
MODEL 12
REMARK VINA RESULT:    -3.817      2.690      7.533
REMARK INTER + INTRA:          -7.947
REMARK INTER:                  -6.593
REMARK INTRA:                  -1.354
REMARK UNBOUND:                -1.899
REMARK  10 active torsions:
REMARK  status: ('A' for Active; 'I' for Inactive)
REMARK    1  A    between atoms: C2_2  and  N25_25 
REMARK    2  A    between atoms: C4_5  and  N8_10 
REMARK    3  A    between atoms: N8_10  and  C10_11 
REMARK    4  A    between atoms: C12_13  and  N16_17 
REMARK       I    between atoms: N16_17  and  C18_18 
REMARK       I    between atoms: C18_18  and  N20_20 
REMARK    5  A    between atoms: N25_25  and  C27_26 
REMARK    6  A    between atoms: C27_26  and  C28_27 
REMARK    7  A    between atoms: C28_27  and  C33_31 
REMARK    8  A    between atoms: N29_28  and  C33_31 
REMARK       I    between atoms: N29_28  and  C31_29 
REMARK    9  A    between atoms: C31_29  and  C34_32 
REMARK   10  A    between atoms: C34_32  and  C37_35 
REMARK       I    between atoms: C37_35  and  N39_37 
ROOT
ATOM      1  C1  LI8 A 501      -4.365  47.220  43.747  1.00  0.00     0.071 A 
ATOM      2  C2  LI8 A 501      -4.023  46.782  42.423  1.00  0.00     0.135 A 
ATOM      3  N3  LI8 A 501      -4.001  45.448  42.194  1.00  0.00    -0.175 N 
ATOM      4  H3  LI8 A 501      -3.752  45.121  41.261  1.00  0.00     0.186 HD
ATOM      5  C4  LI8 A 501      -4.292  44.527  43.141  1.00  0.00     0.684 A 
ATOM      6  N5  LI8 A 501      -4.628  44.952  44.372  1.00  0.00    -0.200 N 
ATOM      7  H5  LI8 A 501      -4.859  44.259  45.084  1.00  0.00     0.183 HD
ATOM      8  C6  LI8 A 501      -4.671  46.247  44.697  1.00  0.00     0.129 A 
ATOM      9 BR7  LI8 A 501      -4.397  49.005  44.296  1.00  0.00    -0.046 Br
ENDROOT
BRANCH   2  10
ATOM     10  N25 LI8 A 501      -3.713  47.652  41.425  1.00  0.00    -0.375 N 
ATOM     11  H   LI8 A 501      -4.462  48.051  40.925  1.00  0.00     0.161 HD
BRANCH  10  12
ATOM     12  C27 LI8 A 501      -2.391  48.038  41.039  1.00  0.00     0.123 C 
BRANCH  12  13
ATOM     13  C28 LI8 A 501      -1.307  47.181  41.726  1.00  0.00     0.039 C 
BRANCH  13  14
ATOM     14  C33 LI8 A 501      -0.517  47.927  42.825  1.00  0.00     0.124 C 
BRANCH  14  15
ATOM     15  N29 LI8 A 501       0.276  47.046  43.642  1.00  0.00    -0.360 N 
ATOM     16  C31 LI8 A 501       0.083  46.809  44.972  1.00  0.00     0.234 C 
ATOM     17  O32 LI8 A 501      -0.872  47.426  45.556  1.00  0.00    -0.272 OA
ATOM     18  H   LI8 A 501       1.021  46.575  43.205  1.00  0.00     0.162 HD
BRANCH  16  19
ATOM     19  C34 LI8 A 501       0.944  45.834  45.794  1.00  0.00     0.114 C 
ATOM     20  C36 LI8 A 501       1.700  46.542  46.980  1.00  0.00     0.035 C 
ATOM     21  C35 LI8 A 501       2.042  45.216  44.862  1.00  0.00     0.035 C 
BRANCH  19  22
ATOM     22  C37 LI8 A 501       0.104  44.713  46.297  1.00  0.00     0.232 C 
ATOM     23  O38 LI8 A 501       0.225  44.220  47.444  1.00  0.00    -0.272 OA
ATOM     24  N39 LI8 A 501      -0.832  44.154  45.538  1.00  0.00    -0.369 N 
ATOM     25  H   LI8 A 501      -0.988  44.486  44.625  1.00  0.00     0.159 HD
ATOM     26  H   LI8 A 501      -1.370  43.408  45.889  1.00  0.00     0.159 HD
ENDBRANCH  19  22
ENDBRANCH  16  19
ENDBRANCH  14  15
ENDBRANCH  13  14
ENDBRANCH  12  13
ENDBRANCH  10  12
ENDBRANCH   2  10
BRANCH   5  27
ATOM     27  N8  LI8 A 501      -4.276  43.207  42.937  1.00  0.00    -0.192 N 
ATOM     28  H   LI8 A 501      -4.216  42.930  41.994  1.00  0.00     0.184 HD
BRANCH  27  29
ATOM     29  C10 LI8 A 501      -4.329  42.206  43.824  1.00  0.00     0.051 A 
ATOM     30  C11 LI8 A 501      -3.256  41.798  44.683  1.00  0.00     0.059 A 
ATOM     31  C12 LI8 A 501      -3.427  40.724  45.589  1.00  0.00     0.038 A 
ATOM     32  C13 LI8 A 501      -4.689  40.055  45.622  1.00  0.00     0.029 A 
ATOM     33  C14 LI8 A 501      -5.751  40.447  44.781  1.00  0.00     0.004 A 
ATOM     34  C15 LI8 A 501      -5.563  41.523  43.894  1.00  0.00     0.030 A 
BRANCH  31  35
ATOM     35  N16 LI8 A 501      -2.392  40.400  46.399  1.00  0.00    -0.309 N 
ATOM     36  C18 LI8 A 501      -1.101  40.703  46.280  1.00  0.00     0.322 C 
ATOM     37  O19 LI8 A 501      -0.710  41.420  45.334  1.00  0.00    -0.247 OA
ATOM     38  N20 LI8 A 501      -0.189  40.215  47.148  1.00  0.00    -0.334 N 
ATOM     39  C24 LI8 A 501       1.214  40.422  47.026  1.00  0.00     0.127 C 
ATOM     40  C21 LI8 A 501      -0.482  39.368  48.251  1.00  0.00     0.127 C 
ATOM     41  C23 LI8 A 501       1.798  39.046  47.377  1.00  0.00     0.022 C 
ATOM     42  C22 LI8 A 501       0.756  38.441  48.364  1.00  0.00     0.022 C 
ATOM     43  H   LI8 A 501      -2.629  39.864  47.191  1.00  0.00     0.170 HD
ENDBRANCH  31  35
ENDBRANCH  27  29
ENDBRANCH   5  27
TORSDOF 10
ENDMDL
MODEL 13
REMARK VINA RESULT:    -3.813      2.584      6.379
REMARK INTER + INTRA:          -7.940
REMARK INTER:                  -7.178
REMARK INTRA:                  -0.762
REMARK UNBOUND:                -1.899
REMARK  10 active torsions:
REMARK  status: ('A' for Active; 'I' for Inactive)
REMARK    1  A    between atoms: C2_2  and  N25_25 
REMARK    2  A    between atoms: C4_5  and  N8_10 
REMARK    3  A    between atoms: N8_10  and  C10_11 
REMARK    4  A    between atoms: C12_13  and  N16_17 
REMARK       I    between atoms: N16_17  and  C18_18 
REMARK       I    between atoms: C18_18  and  N20_20 
REMARK    5  A    between atoms: N25_25  and  C27_26 
REMARK    6  A    between atoms: C27_26  and  C28_27 
REMARK    7  A    between atoms: C28_27  and  C33_31 
REMARK    8  A    between atoms: N29_28  and  C33_31 
REMARK       I    between atoms: N29_28  and  C31_29 
REMARK    9  A    between atoms: C31_29  and  C34_32 
REMARK   10  A    between atoms: C34_32  and  C37_35 
REMARK       I    between atoms: C37_35  and  N39_37 
ROOT
ATOM      1  C1  LI8 A 501       1.141  45.597  47.408  1.00  0.00     0.071 A 
ATOM      2  C2  LI8 A 501       0.485  45.409  46.145  1.00  0.00     0.135 A 
ATOM      3  N3  LI8 A 501       0.526  44.171  45.599  1.00  0.00    -0.175 N 
ATOM      4  H3  LI8 A 501       0.070  44.024  44.699  1.00  0.00     0.186 HD
ATOM      5  C4  LI8 A 501       1.141  43.120  46.188  1.00  0.00     0.684 A 
ATOM      6  N5  LI8 A 501       1.737  43.305  47.379  1.00  0.00    -0.200 N 
ATOM      7  H5  LI8 A 501       2.191  42.511  47.830  1.00  0.00     0.183 HD
ATOM      8  C6  LI8 A 501       1.757  44.492  47.994  1.00  0.00     0.129 A 
ATOM      9 BR7  LI8 A 501       1.260  47.230  48.307  1.00  0.00    -0.046 Br
ENDROOT
BRANCH   2  10
ATOM     10  N25 LI8 A 501      -0.147  46.423  45.494  1.00  0.00    -0.375 N 
ATOM     11  H   LI8 A 501      -1.012  46.721  45.857  1.00  0.00     0.161 HD
BRANCH  10  12
ATOM     12  C27 LI8 A 501       0.338  47.091  44.328  1.00  0.00     0.123 C 
BRANCH  12  13
ATOM     13  C28 LI8 A 501       0.376  48.624  44.504  1.00  0.00     0.039 C 
BRANCH  13  14
ATOM     14  C33 LI8 A 501      -0.535  49.394  43.523  1.00  0.00     0.124 C 
BRANCH  14  15
ATOM     15  N29 LI8 A 501      -1.640  48.604  43.045  1.00  0.00    -0.360 N 
ATOM     16  C31 LI8 A 501      -2.932  48.708  43.470  1.00  0.00     0.234 C 
ATOM     17  O32 LI8 A 501      -3.194  49.568  44.380  1.00  0.00    -0.272 OA
ATOM     18  H   LI8 A 501      -1.447  47.932  42.352  1.00  0.00     0.162 HD
BRANCH  16  19
ATOM     19  C34 LI8 A 501      -4.083  47.858  42.904  1.00  0.00     0.114 C 
ATOM     20  C36 LI8 A 501      -4.686  46.866  43.968  1.00  0.00     0.035 C 
ATOM     21  C35 LI8 A 501      -3.535  46.980  41.727  1.00  0.00     0.035 C 
BRANCH  19  22
ATOM     22  C37 LI8 A 501      -5.143  48.742  42.346  1.00  0.00     0.232 C 
ATOM     23  O38 LI8 A 501      -6.325  48.369  42.158  1.00  0.00    -0.272 OA
ATOM     24  N39 LI8 A 501      -4.885  49.998  41.999  1.00  0.00    -0.369 N 
ATOM     25  H   LI8 A 501      -3.979  50.365  42.117  1.00  0.00     0.159 HD
ATOM     26  H   LI8 A 501      -5.599  50.562  41.624  1.00  0.00     0.159 HD
ENDBRANCH  19  22
ENDBRANCH  16  19
ENDBRANCH  14  15
ENDBRANCH  13  14
ENDBRANCH  12  13
ENDBRANCH  10  12
ENDBRANCH   2  10
BRANCH   5  27
ATOM     27  N8  LI8 A 501       1.194  41.891  45.667  1.00  0.00    -0.192 N 
ATOM     28  H   LI8 A 501       2.075  41.620  45.321  1.00  0.00     0.184 HD
BRANCH  27  29
ATOM     29  C10 LI8 A 501       0.227  40.973  45.547  1.00  0.00     0.051 A 
ATOM     30  C11 LI8 A 501      -1.128  41.238  45.161  1.00  0.00     0.059 A 
ATOM     31  C12 LI8 A 501      -2.068  40.185  45.062  1.00  0.00     0.038 A 
ATOM     32  C13 LI8 A 501      -1.636  38.856  45.361  1.00  0.00     0.029 A 
ATOM     33  C14 LI8 A 501      -0.307  38.584  45.743  1.00  0.00     0.004 A 
ATOM     34  C15 LI8 A 501       0.615  39.644  45.827  1.00  0.00     0.030 A 
BRANCH  31  35
ATOM     35  N16 LI8 A 501      -3.325  40.486  44.661  1.00  0.00    -0.309 N 
ATOM     36  C18 LI8 A 501      -3.848  41.669  44.342  1.00  0.00     0.322 C 
ATOM     37  O19 LI8 A 501      -3.132  42.692  44.346  1.00  0.00    -0.247 OA
ATOM     38  N20 LI8 A 501      -5.160  41.791  44.046  1.00  0.00    -0.334 N 
ATOM     39  C24 LI8 A 501      -5.802  43.036  43.787  1.00  0.00     0.127 C 
ATOM     40  C21 LI8 A 501      -6.098  40.724  44.029  1.00  0.00     0.127 C 
ATOM     41  C23 LI8 A 501      -7.135  42.899  44.537  1.00  0.00     0.022 C 
ATOM     42  C22 LI8 A 501      -7.425  41.369  44.505  1.00  0.00     0.022 C 
ATOM     43  H   LI8 A 501      -3.942  39.721  44.597  1.00  0.00     0.170 HD
ENDBRANCH  31  35
ENDBRANCH  27  29
ENDBRANCH   5  27
TORSDOF 10
ENDMDL
MODEL 14
REMARK VINA RESULT:    -3.728      1.933      5.633
REMARK INTER + INTRA:          -7.805
REMARK INTER:                  -6.620
REMARK INTRA:                  -1.185
REMARK UNBOUND:                -1.899
REMARK  10 active torsions:
REMARK  status: ('A' for Active; 'I' for Inactive)
REMARK    1  A    between atoms: C2_2  and  N25_25 
REMARK    2  A    between atoms: C4_5  and  N8_10 
REMARK    3  A    between atoms: N8_10  and  C10_11 
REMARK    4  A    between atoms: C12_13  and  N16_17 
REMARK       I    between atoms: N16_17  and  C18_18 
REMARK       I    between atoms: C18_18  and  N20_20 
REMARK    5  A    between atoms: N25_25  and  C27_26 
REMARK    6  A    between atoms: C27_26  and  C28_27 
REMARK    7  A    between atoms: C28_27  and  C33_31 
REMARK    8  A    between atoms: N29_28  and  C33_31 
REMARK       I    between atoms: N29_28  and  C31_29 
REMARK    9  A    between atoms: C31_29  and  C34_32 
REMARK   10  A    between atoms: C34_32  and  C37_35 
REMARK       I    between atoms: C37_35  and  N39_37 
ROOT
ATOM      1  C1  LI8 A 501      -0.416  40.740  46.205  1.00  0.00     0.071 A 
ATOM      2  C2  LI8 A 501      -0.810  42.044  45.749  1.00  0.00     0.135 A 
ATOM      3  N3  LI8 A 501      -1.978  42.141  45.073  1.00  0.00    -0.175 N 
ATOM      4  H3  LI8 A 501      -2.267  43.059  44.736  1.00  0.00     0.186 HD
ATOM      5  C4  LI8 A 501      -2.781  41.082  44.821  1.00  0.00     0.684 A 
ATOM      6  N5  LI8 A 501      -2.409  39.870  45.269  1.00  0.00    -0.200 N 
ATOM      7  H5  LI8 A 501      -3.019  39.072  45.090  1.00  0.00     0.183 HD
ATOM      8  C6  LI8 A 501      -1.270  39.671  45.939  1.00  0.00     0.129 A 
ATOM      9 BR7  LI8 A 501       1.181  40.370  47.101  1.00  0.00    -0.046 Br
ENDROOT
BRANCH   2  10
ATOM     10  N25 LI8 A 501      -0.048  43.151  45.961  1.00  0.00    -0.375 N 
ATOM     11  H   LI8 A 501      -0.494  43.936  46.354  1.00  0.00     0.161 HD
BRANCH  10  12
ATOM     12  C27 LI8 A 501       1.345  43.271  45.661  1.00  0.00     0.123 C 
BRANCH  12  13
ATOM     13  C28 LI8 A 501       2.105  44.086  46.729  1.00  0.00     0.039 C 
BRANCH  13  14
ATOM     14  C33 LI8 A 501       1.874  45.611  46.641  1.00  0.00     0.124 C 
BRANCH  14  15
ATOM     15  N29 LI8 A 501       1.382  46.031  45.355  1.00  0.00    -0.360 N 
ATOM     16  C31 LI8 A 501       0.862  47.260  45.068  1.00  0.00     0.234 C 
ATOM     17  O32 LI8 A 501       0.788  48.113  46.016  1.00  0.00    -0.272 OA
ATOM     18  H   LI8 A 501       1.425  45.377  44.621  1.00  0.00     0.162 HD
BRANCH  16  19
ATOM     19  C34 LI8 A 501       0.376  47.668  43.666  1.00  0.00     0.114 C 
ATOM     20  C36 LI8 A 501       1.417  47.318  42.537  1.00  0.00     0.035 C 
ATOM     21  C35 LI8 A 501       0.176  49.221  43.629  1.00  0.00     0.035 C 
BRANCH  19  22
ATOM     22  C37 LI8 A 501      -0.943  47.040  43.381  1.00  0.00     0.232 C 
ATOM     23  O38 LI8 A 501      -1.541  47.156  42.285  1.00  0.00    -0.272 OA
ATOM     24  N39 LI8 A 501      -1.579  46.318  44.297  1.00  0.00    -0.369 N 
ATOM     25  H   LI8 A 501      -1.173  46.180  45.184  1.00  0.00     0.159 HD
ATOM     26  H   LI8 A 501      -2.454  45.919  44.089  1.00  0.00     0.159 HD
ENDBRANCH  19  22
ENDBRANCH  16  19
ENDBRANCH  14  15
ENDBRANCH  13  14
ENDBRANCH  12  13
ENDBRANCH  10  12
ENDBRANCH   2  10
BRANCH   5  27
ATOM     27  N8  LI8 A 501      -3.937  41.155  44.156  1.00  0.00    -0.192 N 
ATOM     28  H   LI8 A 501      -4.124  40.398  43.555  1.00  0.00     0.184 HD
BRANCH  27  29
ATOM     29  C10 LI8 A 501      -4.879  42.106  44.186  1.00  0.00     0.051 A 
ATOM     30  C11 LI8 A 501      -4.636  43.516  44.268  1.00  0.00     0.059 A 
ATOM     31  C12 LI8 A 501      -5.713  44.433  44.289  1.00  0.00     0.038 A 
ATOM     32  C13 LI8 A 501      -7.045  43.920  44.230  1.00  0.00     0.029 A 
ATOM     33  C14 LI8 A 501      -7.297  42.535  44.151  1.00  0.00     0.004 A 
ATOM     34  C15 LI8 A 501      -6.211  41.640  44.123  1.00  0.00     0.030 A 
BRANCH  31  35
ATOM     35  N16 LI8 A 501      -5.427  45.755  44.334  1.00  0.00    -0.309 N 
ATOM     36  C18 LI8 A 501      -5.579  46.683  43.391  1.00  0.00     0.322 C 
ATOM     37  O19 LI8 A 501      -6.089  46.383  42.292  1.00  0.00    -0.247 OA
ATOM     38  N20 LI8 A 501      -5.152  47.950  43.587  1.00  0.00    -0.334 N 
ATOM     39  C24 LI8 A 501      -5.198  48.966  42.591  1.00  0.00     0.127 C 
ATOM     40  C21 LI8 A 501      -4.529  48.428  44.771  1.00  0.00     0.127 C 
ATOM     41  C23 LI8 A 501      -3.847  49.677  42.761  1.00  0.00     0.022 C 
ATOM     42  C22 LI8 A 501      -3.516  49.491  44.272  1.00  0.00     0.022 C 
ATOM     43  H   LI8 A 501      -5.053  46.077  45.186  1.00  0.00     0.170 HD
ENDBRANCH  31  35
ENDBRANCH  27  29
ENDBRANCH   5  27
TORSDOF 10
ENDMDL
MODEL 15
REMARK VINA RESULT:    -3.604      3.058      8.834
REMARK INTER + INTRA:          -7.610
REMARK INTER:                  -7.225
REMARK INTRA:                  -0.385
REMARK UNBOUND:                -1.899
REMARK  10 active torsions:
REMARK  status: ('A' for Active; 'I' for Inactive)
REMARK    1  A    between atoms: C2_2  and  N25_25 
REMARK    2  A    between atoms: C4_5  and  N8_10 
REMARK    3  A    between atoms: N8_10  and  C10_11 
REMARK    4  A    between atoms: C12_13  and  N16_17 
REMARK       I    between atoms: N16_17  and  C18_18 
REMARK       I    between atoms: C18_18  and  N20_20 
REMARK    5  A    between atoms: N25_25  and  C27_26 
REMARK    6  A    between atoms: C27_26  and  C28_27 
REMARK    7  A    between atoms: C28_27  and  C33_31 
REMARK    8  A    between atoms: N29_28  and  C33_31 
REMARK       I    between atoms: N29_28  and  C31_29 
REMARK    9  A    between atoms: C31_29  and  C34_32 
REMARK   10  A    between atoms: C34_32  and  C37_35 
REMARK       I    between atoms: C37_35  and  N39_37 
ROOT
ATOM      1  C1  LI8 A 501       0.619  48.154  44.711  1.00  0.00     0.071 A 
ATOM      2  C2  LI8 A 501      -0.341  47.094  44.839  1.00  0.00     0.135 A 
ATOM      3  N3  LI8 A 501      -1.389  47.095  43.982  1.00  0.00    -0.175 N 
ATOM      4  H3  LI8 A 501      -2.083  46.353  44.066  1.00  0.00     0.186 HD
ATOM      5  C4  LI8 A 501      -1.561  48.031  43.021  1.00  0.00     0.684 A 
ATOM      6  N5  LI8 A 501      -0.645  49.008  42.900  1.00  0.00    -0.200 N 
ATOM      7  H5  LI8 A 501      -0.768  49.708  42.168  1.00  0.00     0.183 HD
ATOM      8  C6  LI8 A 501       0.419  49.097  43.704  1.00  0.00     0.129 A 
ATOM      9 BR7  LI8 A 501       2.102  48.379  45.824  1.00  0.00    -0.046 Br
ENDROOT
BRANCH   2  10
ATOM     10  N25 LI8 A 501      -0.234  46.124  45.787  1.00  0.00    -0.375 N 
ATOM     11  H   LI8 A 501      -0.880  46.146  46.530  1.00  0.00     0.161 HD
BRANCH  10  12
ATOM     12  C27 LI8 A 501       0.738  45.076  45.797  1.00  0.00     0.123 C 
BRANCH  12  13
ATOM     13  C28 LI8 A 501       0.966  44.503  47.211  1.00  0.00     0.039 C 
BRANCH  13  14
ATOM     14  C33 LI8 A 501       1.762  43.179  47.234  1.00  0.00     0.124 C 
BRANCH  14  15
ATOM     15  N29 LI8 A 501       0.918  42.015  47.148  1.00  0.00    -0.360 N 
ATOM     16  C31 LI8 A 501       0.824  41.181  46.072  1.00  0.00     0.234 C 
ATOM     17  O32 LI8 A 501       1.531  41.454  45.042  1.00  0.00    -0.272 OA
ATOM     18  H   LI8 A 501       0.362  41.802  47.932  1.00  0.00     0.162 HD
BRANCH  16  19
ATOM     19  C34 LI8 A 501      -0.073  39.932  46.043  1.00  0.00     0.114 C 
ATOM     20  C36 LI8 A 501       0.615  38.675  46.697  1.00  0.00     0.035 C 
ATOM     21  C35 LI8 A 501      -0.375  39.556  44.552  1.00  0.00     0.035 C 
BRANCH  19  22
ATOM     22  C37 LI8 A 501      -1.375  40.224  46.703  1.00  0.00     0.232 C 
ATOM     23  O38 LI8 A 501      -1.472  40.742  47.840  1.00  0.00    -0.272 OA
ATOM     24  N39 LI8 A 501      -2.530  39.933  46.114  1.00  0.00    -0.369 N 
ATOM     25  H   LI8 A 501      -2.536  39.524  45.219  1.00  0.00     0.159 HD
ATOM     26  H   LI8 A 501      -3.379  40.127  46.573  1.00  0.00     0.159 HD
ENDBRANCH  19  22
ENDBRANCH  16  19
ENDBRANCH  14  15
ENDBRANCH  13  14
ENDBRANCH  12  13
ENDBRANCH  10  12
ENDBRANCH   2  10
BRANCH   5  27
ATOM     27  N8  LI8 A 501      -2.587  48.051  42.165  1.00  0.00    -0.192 N 
ATOM     28  H   LI8 A 501      -2.367  48.353  41.254  1.00  0.00     0.184 HD
BRANCH  27  29
ATOM     29  C10 LI8 A 501      -3.870  47.722  42.363  1.00  0.00     0.051 A 
ATOM     30  C11 LI8 A 501      -4.336  46.475  42.893  1.00  0.00     0.059 A 
ATOM     31  C12 LI8 A 501      -5.720  46.236  43.064  1.00  0.00     0.038 A 
ATOM     32  C13 LI8 A 501      -6.639  47.264  42.689  1.00  0.00     0.029 A 
ATOM     33  C14 LI8 A 501      -6.193  48.494  42.165  1.00  0.00     0.004 A 
ATOM     34  C15 LI8 A 501      -4.810  48.715  42.012  1.00  0.00     0.030 A 
BRANCH  31  35
ATOM     35  N16 LI8 A 501      -6.105  45.054  43.599  1.00  0.00    -0.309 N 
ATOM     36  C18 LI8 A 501      -5.379  43.965  43.846  1.00  0.00     0.322 C 
ATOM     37  O19 LI8 A 501      -4.151  43.965  43.619  1.00  0.00    -0.247 OA
ATOM     38  N20 LI8 A 501      -5.957  42.835  44.308  1.00  0.00    -0.334 N 
ATOM     39  C24 LI8 A 501      -5.258  41.610  44.505  1.00  0.00     0.127 C 
ATOM     40  C21 LI8 A 501      -7.342  42.679  44.585  1.00  0.00     0.127 C 
ATOM     41  C23 LI8 A 501      -6.245  40.561  43.972  1.00  0.00     0.022 C 
ATOM     42  C22 LI8 A 501      -7.643  41.200  44.228  1.00  0.00     0.022 C 
ATOM     43  H   LI8 A 501      -7.057  44.991  43.841  1.00  0.00     0.170 HD
ENDBRANCH  31  35
ENDBRANCH  27  29
ENDBRANCH   5  27
TORSDOF 10
ENDMDL
MODEL 16
REMARK VINA RESULT:    -3.528      2.402      5.131
REMARK INTER + INTRA:          -7.490
REMARK INTER:                  -5.772
REMARK INTRA:                  -1.718
REMARK UNBOUND:                -1.899
REMARK  10 active torsions:
REMARK  status: ('A' for Active; 'I' for Inactive)
REMARK    1  A    between atoms: C2_2  and  N25_25 
REMARK    2  A    between atoms: C4_5  and  N8_10 
REMARK    3  A    between atoms: N8_10  and  C10_11 
REMARK    4  A    between atoms: C12_13  and  N16_17 
REMARK       I    between atoms: N16_17  and  C18_18 
REMARK       I    between atoms: C18_18  and  N20_20 
REMARK    5  A    between atoms: N25_25  and  C27_26 
REMARK    6  A    between atoms: C27_26  and  C28_27 
REMARK    7  A    between atoms: C28_27  and  C33_31 
REMARK    8  A    between atoms: N29_28  and  C33_31 
REMARK       I    between atoms: N29_28  and  C31_29 
REMARK    9  A    between atoms: C31_29  and  C34_32 
REMARK   10  A    between atoms: C34_32  and  C37_35 
REMARK       I    between atoms: C37_35  and  N39_37 
ROOT
ATOM      1  C1  LI8 A 501      -0.029  40.494  45.888  1.00  0.00     0.071 A 
ATOM      2  C2  LI8 A 501      -0.587  40.847  47.163  1.00  0.00     0.135 A 
ATOM      3  N3  LI8 A 501      -0.350  42.097  47.623  1.00  0.00    -0.175 N 
ATOM      4  H3  LI8 A 501      -0.734  42.359  48.531  1.00  0.00     0.186 HD
ATOM      5  C4  LI8 A 501       0.371  43.015  46.940  1.00  0.00     0.684 A 
ATOM      6  N5  LI8 A 501       0.873  42.679  45.740  1.00  0.00    -0.200 N 
ATOM      7  H5  LI8 A 501       1.407  43.374  45.218  1.00  0.00     0.183 HD
ATOM      8  C6  LI8 A 501       0.700  41.467  45.204  1.00  0.00     0.129 A 
ATOM      9 BR7  LI8 A 501      -0.180  38.810  45.094  1.00  0.00    -0.046 Br
ENDROOT
BRANCH   2  10
ATOM     10  N25 LI8 A 501      -1.316  39.970  47.906  1.00  0.00    -0.375 N 
ATOM     11  H   LI8 A 501      -0.819  39.297  48.425  1.00  0.00     0.161 HD
BRANCH  10  12
ATOM     12  C27 LI8 A 501      -2.742  39.944  47.997  1.00  0.00     0.123 C 
BRANCH  12  13
ATOM     13  C28 LI8 A 501      -3.310  38.513  47.884  1.00  0.00     0.039 C 
BRANCH  13  14
ATOM     14  C33 LI8 A 501      -3.785  38.134  46.464  1.00  0.00     0.124 C 
BRANCH  14  15
ATOM     15  N29 LI8 A 501      -4.039  39.281  45.632  1.00  0.00    -0.360 N 
ATOM     16  C31 LI8 A 501      -5.272  39.773  45.314  1.00  0.00     0.234 C 
ATOM     17  O32 LI8 A 501      -6.296  39.163  45.777  1.00  0.00    -0.272 OA
ATOM     18  H   LI8 A 501      -3.258  39.751  45.261  1.00  0.00     0.162 HD
BRANCH  16  19
ATOM     19  C34 LI8 A 501      -5.488  41.022  44.442  1.00  0.00     0.114 C 
ATOM     20  C36 LI8 A 501      -6.812  41.795  44.806  1.00  0.00     0.035 C 
ATOM     21  C35 LI8 A 501      -5.620  40.581  42.944  1.00  0.00     0.035 C 
BRANCH  19  22
ATOM     22  C37 LI8 A 501      -4.307  41.922  44.541  1.00  0.00     0.232 C 
ATOM     23  O38 LI8 A 501      -3.129  41.540  44.349  1.00  0.00    -0.272 OA
ATOM     24  N39 LI8 A 501      -4.440  43.206  44.857  1.00  0.00    -0.369 N 
ATOM     25  H   LI8 A 501      -5.335  43.582  45.023  1.00  0.00     0.159 HD
ATOM     26  H   LI8 A 501      -3.644  43.781  44.925  1.00  0.00     0.159 HD
ENDBRANCH  19  22
ENDBRANCH  16  19
ENDBRANCH  14  15
ENDBRANCH  13  14
ENDBRANCH  12  13
ENDBRANCH  10  12
ENDBRANCH   2  10
BRANCH   5  27
ATOM     27  N8  LI8 A 501       0.617  44.254  47.376  1.00  0.00    -0.192 N 
ATOM     28  H   LI8 A 501       0.833  44.326  48.334  1.00  0.00     0.184 HD
BRANCH  27  29
ATOM     29  C10 LI8 A 501       0.613  45.412  46.703  1.00  0.00     0.051 A 
ATOM     30  C11 LI8 A 501      -0.206  45.709  45.565  1.00  0.00     0.059 A 
ATOM     31  C12 LI8 A 501      -0.130  46.973  44.933  1.00  0.00     0.038 A 
ATOM     32  C13 LI8 A 501       0.785  47.940  45.453  1.00  0.00     0.029 A 
ATOM     33  C14 LI8 A 501       1.596  47.658  46.570  1.00  0.00     0.004 A 
ATOM     34  C15 LI8 A 501       1.499  46.398  47.190  1.00  0.00     0.030 A 
BRANCH  31  35
ATOM     35  N16 LI8 A 501      -0.949  47.214  43.883  1.00  0.00    -0.309 N 
ATOM     36  C18 LI8 A 501      -1.960  48.076  43.782  1.00  0.00     0.322 C 
ATOM     37  O19 LI8 A 501      -2.231  48.837  44.733  1.00  0.00    -0.247 OA
ATOM     38  N20 LI8 A 501      -2.730  48.117  42.673  1.00  0.00    -0.334 N 
ATOM     39  C24 LI8 A 501      -3.880  48.945  42.536  1.00  0.00     0.127 C 
ATOM     40  C21 LI8 A 501      -2.559  47.293  41.528  1.00  0.00     0.127 C 
ATOM     41  C23 LI8 A 501      -4.891  48.021  41.843  1.00  0.00     0.022 C 
ATOM     42  C22 LI8 A 501      -4.000  47.056  41.005  1.00  0.00     0.022 C 
ATOM     43  H   LI8 A 501      -0.773  46.674  43.078  1.00  0.00     0.170 HD
ENDBRANCH  31  35
ENDBRANCH  27  29
ENDBRANCH   5  27
TORSDOF 10
ENDMDL
MODEL 17
REMARK VINA RESULT:    -3.480      2.826      7.345
REMARK INTER + INTRA:          -7.414
REMARK INTER:                  -5.773
REMARK INTRA:                  -1.641
REMARK UNBOUND:                -1.899
REMARK  10 active torsions:
REMARK  status: ('A' for Active; 'I' for Inactive)
REMARK    1  A    between atoms: C2_2  and  N25_25 
REMARK    2  A    between atoms: C4_5  and  N8_10 
REMARK    3  A    between atoms: N8_10  and  C10_11 
REMARK    4  A    between atoms: C12_13  and  N16_17 
REMARK       I    between atoms: N16_17  and  C18_18 
REMARK       I    between atoms: C18_18  and  N20_20 
REMARK    5  A    between atoms: N25_25  and  C27_26 
REMARK    6  A    between atoms: C27_26  and  C28_27 
REMARK    7  A    between atoms: C28_27  and  C33_31 
REMARK    8  A    between atoms: N29_28  and  C33_31 
REMARK       I    between atoms: N29_28  and  C31_29 
REMARK    9  A    between atoms: C31_29  and  C34_32 
REMARK   10  A    between atoms: C34_32  and  C37_35 
REMARK       I    between atoms: C37_35  and  N39_37 
ROOT
ATOM      1  C1  LI8 A 501      -6.062  47.253  42.519  1.00  0.00     0.071 A 
ATOM      2  C2  LI8 A 501      -5.148  46.209  42.886  1.00  0.00     0.135 A 
ATOM      3  N3  LI8 A 501      -3.827  46.448  42.714  1.00  0.00    -0.175 N 
ATOM      4  H3  LI8 A 501      -3.166  45.713  42.964  1.00  0.00     0.186 HD
ATOM      5  C4  LI8 A 501      -3.340  47.613  42.229  1.00  0.00     0.684 A 
ATOM      6  N5  LI8 A 501      -4.206  48.589  41.905  1.00  0.00    -0.200 N 
ATOM      7  H5  LI8 A 501      -3.840  49.472  41.550  1.00  0.00     0.183 HD
ATOM      8  C6  LI8 A 501      -5.529  48.445  42.031  1.00  0.00     0.129 A 
ATOM      9 BR7  LI8 A 501      -7.923  47.114  42.615  1.00  0.00    -0.046 Br
ENDROOT
BRANCH   2  10
ATOM     10  N25 LI8 A 501      -5.569  45.010  43.374  1.00  0.00    -0.375 N 
ATOM     11  H   LI8 A 501      -6.312  44.568  42.903  1.00  0.00     0.161 HD
BRANCH  10  12
ATOM     12  C27 LI8 A 501      -5.024  44.339  44.512  1.00  0.00     0.123 C 
BRANCH  12  13
ATOM     13  C28 LI8 A 501      -5.245  42.813  44.453  1.00  0.00     0.039 C 
BRANCH  13  14
ATOM     14  C33 LI8 A 501      -3.993  42.010  44.034  1.00  0.00     0.124 C 
BRANCH  14  15
ATOM     15  N29 LI8 A 501      -3.722  40.896  44.904  1.00  0.00    -0.360 N 
ATOM     16  C31 LI8 A 501      -2.506  40.585  45.439  1.00  0.00     0.234 C 
ATOM     17  O32 LI8 A 501      -1.513  41.331  45.139  1.00  0.00    -0.272 OA
ATOM     18  H   LI8 A 501      -4.478  40.309  45.133  1.00  0.00     0.162 HD
BRANCH  16  19
ATOM     19  C34 LI8 A 501      -2.277  39.397  46.390  1.00  0.00     0.114 C 
ATOM     20  C36 LI8 A 501      -3.472  38.370  46.377  1.00  0.00     0.035 C 
ATOM     21  C35 LI8 A 501      -2.159  39.934  47.857  1.00  0.00     0.035 C 
BRANCH  19  22
ATOM     22  C37 LI8 A 501      -0.995  38.719  46.058  1.00  0.00     0.232 C 
ATOM     23  O38 LI8 A 501      -0.315  38.077  46.894  1.00  0.00    -0.272 OA
ATOM     24  N39 LI8 A 501      -0.482  38.768  44.833  1.00  0.00    -0.369 N 
ATOM     25  H   LI8 A 501      -0.957  39.253  44.120  1.00  0.00     0.159 HD
ATOM     26  H   LI8 A 501       0.372  38.319  44.638  1.00  0.00     0.159 HD
ENDBRANCH  19  22
ENDBRANCH  16  19
ENDBRANCH  14  15
ENDBRANCH  13  14
ENDBRANCH  12  13
ENDBRANCH  10  12
ENDBRANCH   2  10
BRANCH   5  27
ATOM     27  N8  LI8 A 501      -2.041  47.870  42.052  1.00  0.00    -0.192 N 
ATOM     28  H   LI8 A 501      -1.765  48.005  41.116  1.00  0.00     0.184 HD
BRANCH  27  29
ATOM     29  C10 LI8 A 501      -1.060  47.971  42.957  1.00  0.00     0.051 A 
ATOM     30  C11 LI8 A 501      -0.851  47.079  44.059  1.00  0.00     0.059 A 
ATOM     31  C12 LI8 A 501       0.226  47.280  44.955  1.00  0.00     0.038 A 
ATOM     32  C13 LI8 A 501       1.093  48.395  44.737  1.00  0.00     0.029 A 
ATOM     33  C14 LI8 A 501       0.896  49.280  43.658  1.00  0.00     0.004 A 
ATOM     34  C15 LI8 A 501      -0.176  49.056  42.773  1.00  0.00     0.030 A 
BRANCH  31  35
ATOM     35  N16 LI8 A 501       0.398  46.390  45.959  1.00  0.00    -0.309 N 
ATOM     36  C18 LI8 A 501       1.153  45.293  45.993  1.00  0.00     0.322 C 
ATOM     37  O19 LI8 A 501       1.867  44.993  45.014  1.00  0.00    -0.247 OA
ATOM     38  N20 LI8 A 501       1.132  44.467  47.062  1.00  0.00    -0.334 N 
ATOM     39  C24 LI8 A 501       1.841  43.234  47.127  1.00  0.00     0.127 C 
ATOM     40  C21 LI8 A 501       0.349  44.664  48.232  1.00  0.00     0.127 C 
ATOM     41  C23 LI8 A 501       0.828  42.289  47.790  1.00  0.00     0.022 C 
ATOM     42  C22 LI8 A 501      -0.026  43.231  48.690  1.00  0.00     0.022 C 
ATOM     43  H   LI8 A 501      -0.107  46.580  46.783  1.00  0.00     0.170 HD
ENDBRANCH  31  35
ENDBRANCH  27  29
ENDBRANCH   5  27
TORSDOF 10
ENDMDL
MODEL 18
REMARK VINA RESULT:    -3.437      2.561      6.621
REMARK INTER + INTRA:          -7.346
REMARK INTER:                  -6.365
REMARK INTRA:                  -0.981
REMARK UNBOUND:                -1.899
REMARK  10 active torsions:
REMARK  status: ('A' for Active; 'I' for Inactive)
REMARK    1  A    between atoms: C2_2  and  N25_25 
REMARK    2  A    between atoms: C4_5  and  N8_10 
REMARK    3  A    between atoms: N8_10  and  C10_11 
REMARK    4  A    between atoms: C12_13  and  N16_17 
REMARK       I    between atoms: N16_17  and  C18_18 
REMARK       I    between atoms: C18_18  and  N20_20 
REMARK    5  A    between atoms: N25_25  and  C27_26 
REMARK    6  A    between atoms: C27_26  and  C28_27 
REMARK    7  A    between atoms: C28_27  and  C33_31 
REMARK    8  A    between atoms: N29_28  and  C33_31 
REMARK       I    between atoms: N29_28  and  C31_29 
REMARK    9  A    between atoms: C31_29  and  C34_32 
REMARK   10  A    between atoms: C34_32  and  C37_35 
REMARK       I    between atoms: C37_35  and  N39_37 
ROOT
ATOM      1  C1  LI8 A 501      -6.474  44.875  43.301  1.00  0.00     0.071 A 
ATOM      2  C2  LI8 A 501      -5.172  44.271  43.323  1.00  0.00     0.135 A 
ATOM      3  N3  LI8 A 501      -5.086  42.988  43.744  1.00  0.00    -0.175 N 
ATOM      4  H3  LI8 A 501      -4.166  42.548  43.772  1.00  0.00     0.186 HD
ATOM      5  C4  LI8 A 501      -6.159  42.259  44.128  1.00  0.00     0.684 A 
ATOM      6  N5  LI8 A 501      -7.375  42.831  44.086  1.00  0.00    -0.200 N 
ATOM      7  H5  LI8 A 501      -8.187  42.279  44.364  1.00  0.00     0.183 HD
ATOM      8  C6  LI8 A 501      -7.561  44.094  43.693  1.00  0.00     0.129 A 
ATOM      9 BR7  LI8 A 501      -6.812  46.647  42.816  1.00  0.00    -0.046 Br
ENDROOT
BRANCH   2  10
ATOM     10  N25 LI8 A 501      -4.049  44.947  42.956  1.00  0.00    -0.375 N 
ATOM     11  H   LI8 A 501      -3.663  44.735  42.076  1.00  0.00     0.161 HD
BRANCH  10  12
ATOM     12  C27 LI8 A 501      -3.382  45.939  43.741  1.00  0.00     0.123 C 
BRANCH  12  13
ATOM     13  C28 LI8 A 501      -3.122  47.236  42.948  1.00  0.00     0.039 C 
BRANCH  13  14
ATOM     14  C33 LI8 A 501      -1.838  47.203  42.090  1.00  0.00     0.124 C 
BRANCH  14  15
ATOM     15  N29 LI8 A 501      -0.652  46.943  42.863  1.00  0.00    -0.360 N 
ATOM     16  C31 LI8 A 501      -0.046  47.827  43.709  1.00  0.00     0.234 C 
ATOM     17  O32 LI8 A 501      -0.559  48.992  43.821  1.00  0.00    -0.272 OA
ATOM     18  H   LI8 A 501      -0.243  46.052  42.775  1.00  0.00     0.162 HD
BRANCH  16  19
ATOM     19  C34 LI8 A 501       1.206  47.487  44.536  1.00  0.00     0.114 C 
ATOM     20  C36 LI8 A 501       2.100  48.750  44.831  1.00  0.00     0.035 C 
ATOM     21  C35 LI8 A 501       2.095  46.483  43.725  1.00  0.00     0.035 C 
BRANCH  19  22
ATOM     22  C37 LI8 A 501       0.812  46.812  45.802  1.00  0.00     0.232 C 
ATOM     23  O38 LI8 A 501      -0.175  46.044  45.899  1.00  0.00    -0.272 OA
ATOM     24  N39 LI8 A 501       1.492  47.001  46.929  1.00  0.00    -0.369 N 
ATOM     25  H   LI8 A 501       2.280  47.591  46.934  1.00  0.00     0.159 HD
ATOM     26  H   LI8 A 501       1.208  46.551  47.756  1.00  0.00     0.159 HD
ENDBRANCH  19  22
ENDBRANCH  16  19
ENDBRANCH  14  15
ENDBRANCH  13  14
ENDBRANCH  12  13
ENDBRANCH  10  12
ENDBRANCH   2  10
BRANCH   5  27
ATOM     27  N8  LI8 A 501      -6.097  40.992  44.546  1.00  0.00    -0.192 N 
ATOM     28  H   LI8 A 501      -6.925  40.471  44.429  1.00  0.00     0.184 HD
BRANCH  27  29
ATOM     29  C10 LI8 A 501      -5.078  40.325  45.102  1.00  0.00     0.051 A 
ATOM     30  C11 LI8 A 501      -3.717  40.773  45.144  1.00  0.00     0.059 A 
ATOM     31  C12 LI8 A 501      -2.718  39.984  45.764  1.00  0.00     0.038 A 
ATOM     32  C13 LI8 A 501      -3.098  38.733  46.338  1.00  0.00     0.029 A 
ATOM     33  C14 LI8 A 501      -4.433  38.281  46.301  1.00  0.00     0.004 A 
ATOM     34  C15 LI8 A 501      -5.413  39.085  45.688  1.00  0.00     0.030 A 
BRANCH  31  35
ATOM     35  N16 LI8 A 501      -1.455  40.469  45.805  1.00  0.00    -0.309 N 
ATOM     36  C18 LI8 A 501      -0.727  40.836  46.859  1.00  0.00     0.322 C 
ATOM     37  O19 LI8 A 501      -1.187  40.709  48.013  1.00  0.00    -0.247 OA
ATOM     38  N20 LI8 A 501       0.497  41.385  46.701  1.00  0.00    -0.334 N 
ATOM     39  C24 LI8 A 501       1.287  41.885  47.775  1.00  0.00     0.127 C 
ATOM     40  C21 LI8 A 501       1.134  41.617  45.452  1.00  0.00     0.127 C 
ATOM     41  C23 LI8 A 501       1.862  43.189  47.203  1.00  0.00     0.022 C 
ATOM     42  C22 LI8 A 501       1.952  42.916  45.672  1.00  0.00     0.022 C 
ATOM     43  H   LI8 A 501      -1.010  40.563  44.932  1.00  0.00     0.170 HD
ENDBRANCH  31  35
ENDBRANCH  27  29
ENDBRANCH   5  27
TORSDOF 10
ENDMDL
MODEL 19
REMARK VINA RESULT:    -3.425      2.437      6.652
REMARK INTER + INTRA:          -7.326
REMARK INTER:                  -6.521
REMARK INTRA:                  -0.806
REMARK UNBOUND:                -1.899
REMARK  10 active torsions:
REMARK  status: ('A' for Active; 'I' for Inactive)
REMARK    1  A    between atoms: C2_2  and  N25_25 
REMARK    2  A    between atoms: C4_5  and  N8_10 
REMARK    3  A    between atoms: N8_10  and  C10_11 
REMARK    4  A    between atoms: C12_13  and  N16_17 
REMARK       I    between atoms: N16_17  and  C18_18 
REMARK       I    between atoms: C18_18  and  N20_20 
REMARK    5  A    between atoms: N25_25  and  C27_26 
REMARK    6  A    between atoms: C27_26  and  C28_27 
REMARK    7  A    between atoms: C28_27  and  C33_31 
REMARK    8  A    between atoms: N29_28  and  C33_31 
REMARK       I    between atoms: N29_28  and  C31_29 
REMARK    9  A    between atoms: C31_29  and  C34_32 
REMARK   10  A    between atoms: C34_32  and  C37_35 
REMARK       I    between atoms: C37_35  and  N39_37 
ROOT
ATOM      1  C1  LI8 A 501      -6.331  44.017  43.935  1.00  0.00     0.071 A 
ATOM      2  C2  LI8 A 501      -4.956  43.632  44.081  1.00  0.00     0.135 A 
ATOM      3  N3  LI8 A 501      -4.025  44.394  43.461  1.00  0.00    -0.175 N 
ATOM      4  H3  LI8 A 501      -3.044  44.128  43.550  1.00  0.00     0.186 HD
ATOM      5  C4  LI8 A 501      -4.330  45.490  42.729  1.00  0.00     0.684 A 
ATOM      6  N5  LI8 A 501      -5.620  45.850  42.615  1.00  0.00    -0.200 N 
ATOM      7  H5  LI8 A 501      -5.851  46.683  42.073  1.00  0.00     0.183 HD
ATOM      8  C6  LI8 A 501      -6.612  45.158  43.184  1.00  0.00     0.129 A 
ATOM      9 BR7  LI8 A 501      -7.776  43.077  44.652  1.00  0.00    -0.046 Br
ENDROOT
BRANCH   2  10
ATOM     10  N25 LI8 A 501      -4.578  42.538  44.797  1.00  0.00    -0.375 N 
ATOM     11  H   LI8 A 501      -4.368  42.673  45.749  1.00  0.00     0.161 HD
BRANCH  10  12
ATOM     12  C27 LI8 A 501      -4.460  41.209  44.283  1.00  0.00     0.123 C 
BRANCH  12  13
ATOM     13  C28 LI8 A 501      -5.267  40.187  45.111  1.00  0.00     0.039 C 
BRANCH  13  14
ATOM     14  C33 LI8 A 501      -4.400  39.279  46.010  1.00  0.00     0.124 C 
BRANCH  14  15
ATOM     15  N29 LI8 A 501      -2.988  39.515  45.853  1.00  0.00    -0.360 N 
ATOM     16  C31 LI8 A 501      -2.158  40.027  46.808  1.00  0.00     0.234 C 
ATOM     17  O32 LI8 A 501      -2.669  40.339  47.937  1.00  0.00    -0.272 OA
ATOM     18  H   LI8 A 501      -2.588  39.288  44.983  1.00  0.00     0.162 HD
BRANCH  16  19
ATOM     19  C34 LI8 A 501      -0.648  40.233  46.597  1.00  0.00     0.114 C 
ATOM     20  C36 LI8 A 501      -0.249  40.283  45.074  1.00  0.00     0.035 C 
ATOM     21  C35 LI8 A 501       0.123  39.023  47.226  1.00  0.00     0.035 C 
BRANCH  19  22
ATOM     22  C37 LI8 A 501      -0.199  41.464  47.301  1.00  0.00     0.232 C 
ATOM     23  O38 LI8 A 501       0.167  42.506  46.707  1.00  0.00    -0.272 OA
ATOM     24  N39 LI8 A 501      -0.146  41.523  48.628  1.00  0.00    -0.369 N 
ATOM     25  H   LI8 A 501      -0.418  40.745  49.166  1.00  0.00     0.159 HD
ATOM     26  H   LI8 A 501       0.162  42.346  49.072  1.00  0.00     0.159 HD
ENDBRANCH  19  22
ENDBRANCH  16  19
ENDBRANCH  14  15
ENDBRANCH  13  14
ENDBRANCH  12  13
ENDBRANCH  10  12
ENDBRANCH   2  10
BRANCH   5  27
ATOM     27  N8  LI8 A 501      -3.428  46.256  42.109  1.00  0.00    -0.192 N 
ATOM     28  H   LI8 A 501      -3.280  46.043  41.159  1.00  0.00     0.184 HD
BRANCH  27  29
ATOM     29  C10 LI8 A 501      -2.696  47.269  42.588  1.00  0.00     0.051 A 
ATOM     30  C11 LI8 A 501      -1.723  47.170  43.636  1.00  0.00     0.059 A 
ATOM     31  C12 LI8 A 501      -1.002  48.311  44.060  1.00  0.00     0.038 A 
ATOM     32  C13 LI8 A 501      -1.271  49.562  43.424  1.00  0.00     0.029 A 
ATOM     33  C14 LI8 A 501      -2.227  49.672  42.393  1.00  0.00     0.004 A 
ATOM     34  C15 LI8 A 501      -2.927  48.523  41.980  1.00  0.00     0.030 A 
BRANCH  31  35
ATOM     35  N16 LI8 A 501      -0.071  48.156  45.030  1.00  0.00    -0.309 N 
ATOM     36  C18 LI8 A 501       0.574  47.054  45.411  1.00  0.00     0.322 C 
ATOM     37  O19 LI8 A 501       0.380  45.976  44.812  1.00  0.00    -0.247 OA
ATOM     38  N20 LI8 A 501       1.414  47.071  46.469  1.00  0.00    -0.334 N 
ATOM     39  C24 LI8 A 501       2.062  45.914  46.986  1.00  0.00     0.127 C 
ATOM     40  C21 LI8 A 501       1.708  48.213  47.261  1.00  0.00     0.127 C 
ATOM     41  C23 LI8 A 501       1.942  46.101  48.505  1.00  0.00     0.022 C 
ATOM     42  C22 LI8 A 501       1.921  47.648  48.689  1.00  0.00     0.022 C 
ATOM     43  H   LI8 A 501       0.162  48.974  45.526  1.00  0.00     0.170 HD
ENDBRANCH  31  35
ENDBRANCH  27  29
ENDBRANCH   5  27
TORSDOF 10
ENDMDL
MODEL 20
REMARK VINA RESULT:    -3.367      1.881      5.386
REMARK INTER + INTRA:          -7.234
REMARK INTER:                  -5.433
REMARK INTRA:                  -1.801
REMARK UNBOUND:                -1.899
REMARK  10 active torsions:
REMARK  status: ('A' for Active; 'I' for Inactive)
REMARK    1  A    between atoms: C2_2  and  N25_25 
REMARK    2  A    between atoms: C4_5  and  N8_10 
REMARK    3  A    between atoms: N8_10  and  C10_11 
REMARK    4  A    between atoms: C12_13  and  N16_17 
REMARK       I    between atoms: N16_17  and  C18_18 
REMARK       I    between atoms: C18_18  and  N20_20 
REMARK    5  A    between atoms: N25_25  and  C27_26 
REMARK    6  A    between atoms: C27_26  and  C28_27 
REMARK    7  A    between atoms: C28_27  and  C33_31 
REMARK    8  A    between atoms: N29_28  and  C33_31 
REMARK       I    between atoms: N29_28  and  C31_29 
REMARK    9  A    between atoms: C31_29  and  C34_32 
REMARK   10  A    between atoms: C34_32  and  C37_35 
REMARK       I    between atoms: C37_35  and  N39_37 
ROOT
ATOM      1  C1  LI8 A 501      -2.314  39.952  46.827  1.00  0.00     0.071 A 
ATOM      2  C2  LI8 A 501      -1.509  41.064  46.407  1.00  0.00     0.135 A 
ATOM      3  N3  LI8 A 501      -1.968  41.813  45.377  1.00  0.00    -0.175 N 
ATOM      4  H3  LI8 A 501      -1.403  42.602  45.063  1.00  0.00     0.186 HD
ATOM      5  C4  LI8 A 501      -3.137  41.566  44.744  1.00  0.00     0.684 A 
ATOM      6  N5  LI8 A 501      -3.890  40.533  45.158  1.00  0.00    -0.200 N 
ATOM      7  H5  LI8 A 501      -4.778  40.353  44.689  1.00  0.00     0.183 HD
ATOM      8  C6  LI8 A 501      -3.519  39.731  46.161  1.00  0.00     0.129 A 
ATOM      9 BR7  LI8 A 501      -1.844  38.756  48.182  1.00  0.00    -0.046 Br
ENDROOT
BRANCH   2  10
ATOM     10  N25 LI8 A 501      -0.319  41.365  46.995  1.00  0.00    -0.375 N 
ATOM     11  H   LI8 A 501      -0.313  41.464  47.975  1.00  0.00     0.161 HD
BRANCH  10  12
ATOM     12  C27 LI8 A 501       0.922  41.552  46.311  1.00  0.00     0.123 C 
BRANCH  12  13
ATOM     13  C28 LI8 A 501       2.073  41.911  47.274  1.00  0.00     0.039 C 
BRANCH  13  14
ATOM     14  C33 LI8 A 501       2.044  43.373  47.773  1.00  0.00     0.124 C 
BRANCH  14  15
ATOM     15  N29 LI8 A 501       1.900  44.328  46.706  1.00  0.00    -0.360 N 
ATOM     16  C31 LI8 A 501       1.255  45.527  46.797  1.00  0.00     0.234 C 
ATOM     17  O32 LI8 A 501       0.720  45.834  47.916  1.00  0.00    -0.272 OA
ATOM     18  H   LI8 A 501       2.299  44.096  45.837  1.00  0.00     0.162 HD
BRANCH  16  19
ATOM     19  C34 LI8 A 501       1.154  46.526  45.631  1.00  0.00     0.114 C 
ATOM     20  C36 LI8 A 501       1.815  47.917  45.964  1.00  0.00     0.035 C 
ATOM     21  C35 LI8 A 501      -0.358  46.805  45.329  1.00  0.00     0.035 C 
BRANCH  19  22
ATOM     22  C37 LI8 A 501       1.754  45.938  44.402  1.00  0.00     0.232 C 
ATOM     23  O38 LI8 A 501       2.096  44.735  44.308  1.00  0.00    -0.272 OA
ATOM     24  N39 LI8 A 501       1.976  46.675  43.319  1.00  0.00    -0.369 N 
ATOM     25  H   LI8 A 501       1.734  47.629  43.315  1.00  0.00     0.159 HD
ATOM     26  H   LI8 A 501       2.381  46.266  42.521  1.00  0.00     0.159 HD
ENDBRANCH  19  22
ENDBRANCH  16  19
ENDBRANCH  14  15
ENDBRANCH  13  14
ENDBRANCH  12  13
ENDBRANCH  10  12
ENDBRANCH   2  10
BRANCH   5  27
ATOM     27  N8  LI8 A 501      -3.609  42.292  43.726  1.00  0.00    -0.192 N 
ATOM     28  H   LI8 A 501      -3.538  41.867  42.840  1.00  0.00     0.184 HD
BRANCH  27  29
ATOM     29  C10 LI8 A 501      -4.163  43.510  43.731  1.00  0.00     0.051 A 
ATOM     30  C11 LI8 A 501      -3.457  44.746  43.556  1.00  0.00     0.059 A 
ATOM     31  C12 LI8 A 501      -4.149  45.980  43.575  1.00  0.00     0.038 A 
ATOM     32  C13 LI8 A 501      -5.564  45.964  43.778  1.00  0.00     0.029 A 
ATOM     33  C14 LI8 A 501      -6.268  44.756  43.953  1.00  0.00     0.004 A 
ATOM     34  C15 LI8 A 501      -5.562  43.538  43.921  1.00  0.00     0.030 A 
BRANCH  31  35
ATOM     35  N16 LI8 A 501      -3.440  47.114  43.373  1.00  0.00    -0.309 N 
ATOM     36  C18 LI8 A 501      -2.917  47.591  42.244  1.00  0.00     0.322 C 
ATOM     37  O19 LI8 A 501      -3.097  46.988  41.166  1.00  0.00    -0.247 OA
ATOM     38  N20 LI8 A 501      -2.157  48.708  42.248  1.00  0.00    -0.334 N 
ATOM     39  C24 LI8 A 501      -1.493  49.219  41.097  1.00  0.00     0.127 C 
ATOM     40  C21 LI8 A 501      -1.844  49.480  43.399  1.00  0.00     0.127 C 
ATOM     41  C23 LI8 A 501      -0.120  49.635  41.647  1.00  0.00     0.022 C 
ATOM     42  C22 LI8 A 501      -0.412  50.010  43.131  1.00  0.00     0.022 C 
ATOM     43  H   LI8 A 501      -3.288  47.666  44.174  1.00  0.00     0.170 HD
ENDBRANCH  31  35
ENDBRANCH  27  29
ENDBRANCH   5  27
TORSDOF 10
ENDMDL
MODEL 21
REMARK VINA RESULT:    -3.139      2.743      7.316
REMARK INTER + INTRA:          -6.872
REMARK INTER:                  -5.702
REMARK INTRA:                  -1.170
REMARK UNBOUND:                -1.899
REMARK  10 active torsions:
REMARK  status: ('A' for Active; 'I' for Inactive)
REMARK    1  A    between atoms: C2_2  and  N25_25 
REMARK    2  A    between atoms: C4_5  and  N8_10 
REMARK    3  A    between atoms: N8_10  and  C10_11 
REMARK    4  A    between atoms: C12_13  and  N16_17 
REMARK       I    between atoms: N16_17  and  C18_18 
REMARK       I    between atoms: C18_18  and  N20_20 
REMARK    5  A    between atoms: N25_25  and  C27_26 
REMARK    6  A    between atoms: C27_26  and  C28_27 
REMARK    7  A    between atoms: C28_27  and  C33_31 
REMARK    8  A    between atoms: N29_28  and  C33_31 
REMARK       I    between atoms: N29_28  and  C31_29 
REMARK    9  A    between atoms: C31_29  and  C34_32 
REMARK   10  A    between atoms: C34_32  and  C37_35 
REMARK       I    between atoms: C37_35  and  N39_37 
ROOT
ATOM      1  C1  LI8 A 501      -6.675  46.453  42.703  1.00  0.00     0.071 A 
ATOM      2  C2  LI8 A 501      -5.319  45.979  42.714  1.00  0.00     0.135 A 
ATOM      3  N3  LI8 A 501      -4.334  46.906  42.657  1.00  0.00    -0.175 N 
ATOM      4  H3  LI8 A 501      -3.367  46.584  42.657  1.00  0.00     0.186 HD
ATOM      5  C4  LI8 A 501      -4.569  48.237  42.601  1.00  0.00     0.684 A 
ATOM      6  N5  LI8 A 501      -5.842  48.668  42.610  1.00  0.00    -0.200 N 
ATOM      7  H5  LI8 A 501      -6.021  49.672  42.579  1.00  0.00     0.183 HD
ATOM      8  C6  LI8 A 501      -6.883  47.831  42.656  1.00  0.00     0.129 A 
ATOM      9 BR7  LI8 A 501      -8.182  45.350  42.713  1.00  0.00    -0.046 Br
ENDROOT
BRANCH   2  10
ATOM     10  N25 LI8 A 501      -5.011  44.655  42.762  1.00  0.00    -0.375 N 
ATOM     11  H   LI8 A 501      -4.798  44.211  41.910  1.00  0.00     0.161 HD
BRANCH  10  12
ATOM     12  C27 LI8 A 501      -4.970  43.854  43.945  1.00  0.00     0.123 C 
BRANCH  12  13
ATOM     13  C28 LI8 A 501      -4.011  42.653  43.806  1.00  0.00     0.039 C 
BRANCH  13  14
ATOM     14  C33 LI8 A 501      -4.265  41.521  44.827  1.00  0.00     0.124 C 
BRANCH  14  15
ATOM     15  N29 LI8 A 501      -3.071  41.111  45.519  1.00  0.00    -0.360 N 
ATOM     16  C31 LI8 A 501      -2.961  40.019  46.331  1.00  0.00     0.234 C 
ATOM     17  O32 LI8 A 501      -4.002  39.299  46.508  1.00  0.00    -0.272 OA
ATOM     18  H   LI8 A 501      -2.267  41.664  45.398  1.00  0.00     0.162 HD
BRANCH  16  19
ATOM     19  C34 LI8 A 501      -1.651  39.607  47.025  1.00  0.00     0.114 C 
ATOM     20  C36 LI8 A 501      -1.826  38.348  47.955  1.00  0.00     0.035 C 
ATOM     21  C35 LI8 A 501      -1.171  40.783  47.943  1.00  0.00     0.035 C 
BRANCH  19  22
ATOM     22  C37 LI8 A 501      -0.589  39.371  46.010  1.00  0.00     0.232 C 
ATOM     23  O38 LI8 A 501      -0.643  39.811  44.837  1.00  0.00    -0.272 OA
ATOM     24  N39 LI8 A 501       0.493  38.652  46.294  1.00  0.00    -0.369 N 
ATOM     25  H   LI8 A 501       0.608  38.272  47.194  1.00  0.00     0.159 HD
ATOM     26  H   LI8 A 501       1.178  38.501  45.604  1.00  0.00     0.159 HD
ENDBRANCH  19  22
ENDBRANCH  16  19
ENDBRANCH  14  15
ENDBRANCH  13  14
ENDBRANCH  12  13
ENDBRANCH  10  12
ENDBRANCH   2  10
BRANCH   5  27
ATOM     27  N8  LI8 A 501      -3.613  49.168  42.545  1.00  0.00    -0.192 N 
ATOM     28  H   LI8 A 501      -3.935  50.097  42.492  1.00  0.00     0.184 HD
BRANCH  27  29
ATOM     29  C10 LI8 A 501      -2.282  49.025  42.549  1.00  0.00     0.051 A 
ATOM     30  C11 LI8 A 501      -1.476  48.780  43.710  1.00  0.00     0.059 A 
ATOM     31  C12 LI8 A 501      -0.072  48.641  43.596  1.00  0.00     0.038 A 
ATOM     32  C13 LI8 A 501       0.521  48.758  42.301  1.00  0.00     0.029 A 
ATOM     33  C14 LI8 A 501      -0.261  49.000  41.153  1.00  0.00     0.004 A 
ATOM     34  C15 LI8 A 501      -1.657  49.126  41.287  1.00  0.00     0.030 A 
BRANCH  31  35
ATOM     35  N16 LI8 A 501       0.638  48.378  44.717  1.00  0.00    -0.309 N 
ATOM     36  C18 LI8 A 501       0.854  47.212  45.324  1.00  0.00     0.322 C 
ATOM     37  O19 LI8 A 501       0.408  46.156  44.829  1.00  0.00    -0.247 OA
ATOM     38  N20 LI8 A 501       1.522  47.151  46.496  1.00  0.00    -0.334 N 
ATOM     39  C24 LI8 A 501       1.708  45.953  47.243  1.00  0.00     0.127 C 
ATOM     40  C21 LI8 A 501       2.060  48.269  47.189  1.00  0.00     0.127 C 
ATOM     41  C23 LI8 A 501       1.469  46.408  48.690  1.00  0.00     0.022 C 
ATOM     42  C22 LI8 A 501       1.910  47.902  48.688  1.00  0.00     0.022 C 
ATOM     43  H   LI8 A 501       1.053  49.161  45.147  1.00  0.00     0.170 HD
ENDBRANCH  31  35
ENDBRANCH  27  29
ENDBRANCH   5  27
TORSDOF 10
ENDMDL
MODEL 22
REMARK VINA RESULT:    -3.124      2.674      7.614
REMARK INTER + INTRA:          -6.849
REMARK INTER:                  -6.598
REMARK INTRA:                  -0.251
REMARK UNBOUND:                -1.899
REMARK  10 active torsions:
REMARK  status: ('A' for Active; 'I' for Inactive)
REMARK    1  A    between atoms: C2_2  and  N25_25 
REMARK    2  A    between atoms: C4_5  and  N8_10 
REMARK    3  A    between atoms: N8_10  and  C10_11 
REMARK    4  A    between atoms: C12_13  and  N16_17 
REMARK       I    between atoms: N16_17  and  C18_18 
REMARK       I    between atoms: C18_18  and  N20_20 
REMARK    5  A    between atoms: N25_25  and  C27_26 
REMARK    6  A    between atoms: C27_26  and  C28_27 
REMARK    7  A    between atoms: C28_27  and  C33_31 
REMARK    8  A    between atoms: N29_28  and  C33_31 
REMARK       I    between atoms: N29_28  and  C31_29 
REMARK    9  A    between atoms: C31_29  and  C34_32 
REMARK   10  A    between atoms: C34_32  and  C37_35 
REMARK       I    between atoms: C37_35  and  N39_37 
ROOT
ATOM      1  C1  LI8 A 501      -4.522  47.224  44.165  1.00  0.00     0.071 A 
ATOM      2  C2  LI8 A 501      -4.895  46.888  42.820  1.00  0.00     0.135 A 
ATOM      3  N3  LI8 A 501      -5.413  45.656  42.605  1.00  0.00    -0.175 N 
ATOM      4  H3  LI8 A 501      -5.676  45.401  41.653  1.00  0.00     0.186 HD
ATOM      5  C4  LI8 A 501      -5.598  44.747  43.589  1.00  0.00     0.684 A 
ATOM      6  N5  LI8 A 501      -5.261  45.080  44.847  1.00  0.00    -0.200 N 
ATOM      7  H5  LI8 A 501      -5.412  44.400  45.592  1.00  0.00     0.183 HD
ATOM      8  C6  LI8 A 501      -4.736  46.269  45.158  1.00  0.00     0.129 A 
ATOM      9 BR7  LI8 A 501      -3.735  48.840  44.674  1.00  0.00    -0.046 Br
ENDROOT
BRANCH   2  10
ATOM     10  N25 LI8 A 501      -4.730  47.751  41.781  1.00  0.00    -0.375 N 
ATOM     11  H   LI8 A 501      -5.327  48.534  41.746  1.00  0.00     0.161 HD
BRANCH  10  12
ATOM     12  C27 LI8 A 501      -3.764  47.619  40.736  1.00  0.00     0.123 C 
BRANCH  12  13
ATOM     13  C28 LI8 A 501      -2.338  47.397  41.281  1.00  0.00     0.039 C 
BRANCH  13  14
ATOM     14  C33 LI8 A 501      -1.452  48.663  41.261  1.00  0.00     0.124 C 
BRANCH  14  15
ATOM     15  N29 LI8 A 501      -0.270  48.535  42.074  1.00  0.00    -0.360 N 
ATOM     16  C31 LI8 A 501      -0.133  47.705  43.149  1.00  0.00     0.234 C 
ATOM     17  O32 LI8 A 501      -1.137  46.986  43.479  1.00  0.00    -0.272 OA
ATOM     18  H   LI8 A 501       0.504  49.093  41.834  1.00  0.00     0.162 HD
BRANCH  16  19
ATOM     19  C34 LI8 A 501       1.164  47.585  43.967  1.00  0.00     0.114 C 
ATOM     20  C36 LI8 A 501       2.033  48.898  43.924  1.00  0.00     0.035 C 
ATOM     21  C35 LI8 A 501       2.045  46.441  43.359  1.00  0.00     0.035 C 
BRANCH  19  22
ATOM     22  C37 LI8 A 501       0.848  47.206  45.371  1.00  0.00     0.232 C 
ATOM     23  O38 LI8 A 501       0.709  46.020  45.753  1.00  0.00    -0.272 OA
ATOM     24  N39 LI8 A 501       0.678  48.127  46.315  1.00  0.00    -0.369 N 
ATOM     25  H   LI8 A 501       0.770  49.081  46.093  1.00  0.00     0.159 HD
ATOM     26  H   LI8 A 501       0.461  47.854  47.235  1.00  0.00     0.159 HD
ENDBRANCH  19  22
ENDBRANCH  16  19
ENDBRANCH  14  15
ENDBRANCH  13  14
ENDBRANCH  12  13
ENDBRANCH  10  12
ENDBRANCH   2  10
BRANCH   5  27
ATOM     27  N8  LI8 A 501      -6.107  43.527  43.399  1.00  0.00    -0.192 N 
ATOM     28  H   LI8 A 501      -6.784  43.461  42.686  1.00  0.00     0.184 HD
BRANCH  27  29
ATOM     29  C10 LI8 A 501      -5.834  42.380  44.034  1.00  0.00     0.051 A 
ATOM     30  C11 LI8 A 501      -4.596  42.064  44.684  1.00  0.00     0.059 A 
ATOM     31  C12 LI8 A 501      -4.419  40.817  45.330  1.00  0.00     0.038 A 
ATOM     32  C13 LI8 A 501      -5.500  39.883  45.315  1.00  0.00     0.029 A 
ATOM     33  C14 LI8 A 501      -6.722  40.182  44.678  1.00  0.00     0.004 A 
ATOM     34  C15 LI8 A 501      -6.881  41.432  44.048  1.00  0.00     0.030 A 
BRANCH  31  35
ATOM     35  N16 LI8 A 501      -3.243  40.582  45.956  1.00  0.00    -0.309 N 
ATOM     36  C18 LI8 A 501      -2.054  40.289  45.433  1.00  0.00     0.322 C 
ATOM     37  O19 LI8 A 501      -1.908  40.244  44.193  1.00  0.00    -0.247 OA
ATOM     38  N20 LI8 A 501      -0.998  39.997  46.224  1.00  0.00    -0.334 N 
ATOM     39  C24 LI8 A 501       0.273  39.585  45.732  1.00  0.00     0.127 C 
ATOM     40  C21 LI8 A 501      -1.023  39.979  47.645  1.00  0.00     0.127 C 
ATOM     41  C23 LI8 A 501       0.668  38.458  46.698  1.00  0.00     0.022 C 
ATOM     42  C22 LI8 A 501      -0.034  38.850  48.033  1.00  0.00     0.022 C 
ATOM     43  H   LI8 A 501      -3.270  40.636  46.939  1.00  0.00     0.170 HD
ENDBRANCH  31  35
ENDBRANCH  27  29
ENDBRANCH   5  27
TORSDOF 10
ENDMDL
MODEL 23
REMARK VINA RESULT:    -2.991      2.884      7.576
REMARK INTER + INTRA:          -6.639
REMARK INTER:                  -6.533
REMARK INTRA:                  -0.106
REMARK UNBOUND:                -1.899
REMARK  10 active torsions:
REMARK  status: ('A' for Active; 'I' for Inactive)
REMARK    1  A    between atoms: C2_2  and  N25_25 
REMARK    2  A    between atoms: C4_5  and  N8_10 
REMARK    3  A    between atoms: N8_10  and  C10_11 
REMARK    4  A    between atoms: C12_13  and  N16_17 
REMARK       I    between atoms: N16_17  and  C18_18 
REMARK       I    between atoms: C18_18  and  N20_20 
REMARK    5  A    between atoms: N25_25  and  C27_26 
REMARK    6  A    between atoms: C27_26  and  C28_27 
REMARK    7  A    between atoms: C28_27  and  C33_31 
REMARK    8  A    between atoms: N29_28  and  C33_31 
REMARK       I    between atoms: N29_28  and  C31_29 
REMARK    9  A    between atoms: C31_29  and  C34_32 
REMARK   10  A    between atoms: C34_32  and  C37_35 
REMARK       I    between atoms: C37_35  and  N39_37 
ROOT
ATOM      1  C1  LI8 A 501      -6.384  47.184  42.673  1.00  0.00     0.071 A 
ATOM      2  C2  LI8 A 501      -5.388  46.238  43.094  1.00  0.00     0.135 A 
ATOM      3  N3  LI8 A 501      -5.820  45.034  43.535  1.00  0.00    -0.175 N 
ATOM      4  H3  LI8 A 501      -5.125  44.354  43.844  1.00  0.00     0.186 HD
ATOM      5  C4  LI8 A 501      -7.126  44.686  43.587  1.00  0.00     0.684 A 
ATOM      6  N5  LI8 A 501      -8.047  45.574  43.173  1.00  0.00    -0.200 N 
ATOM      7  H5  LI8 A 501      -9.032  45.309  43.200  1.00  0.00     0.183 HD
ATOM      8  C6  LI8 A 501      -7.720  46.791  42.728  1.00  0.00     0.129 A 
ATOM      9 BR7  LI8 A 501      -6.015  48.919  42.089  1.00  0.00    -0.046 Br
ENDROOT
BRANCH   2  10
ATOM     10  N25 LI8 A 501      -4.058  46.524  43.075  1.00  0.00    -0.375 N 
ATOM     11  H   LI8 A 501      -3.620  46.569  42.194  1.00  0.00     0.161 HD
BRANCH  10  12
ATOM     12  C27 LI8 A 501      -3.243  46.762  44.225  1.00  0.00     0.123 C 
BRANCH  12  13
ATOM     13  C28 LI8 A 501      -3.072  48.268  44.518  1.00  0.00     0.039 C 
BRANCH  13  14
ATOM     14  C33 LI8 A 501      -2.498  49.079  43.335  1.00  0.00     0.124 C 
BRANCH  14  15
ATOM     15  N29 LI8 A 501      -1.068  49.234  43.401  1.00  0.00    -0.360 N 
ATOM     16  C31 LI8 A 501      -0.151  48.346  42.918  1.00  0.00     0.234 C 
ATOM     17  O32 LI8 A 501      -0.587  47.278  42.369  1.00  0.00    -0.272 OA
ATOM     18  H   LI8 A 501      -0.722  50.049  43.832  1.00  0.00     0.162 HD
BRANCH  16  19
ATOM     19  C34 LI8 A 501       1.368  48.574  42.988  1.00  0.00     0.114 C 
ATOM     20  C36 LI8 A 501       1.858  49.713  42.016  1.00  0.00     0.035 C 
ATOM     21  C35 LI8 A 501       2.101  47.261  42.549  1.00  0.00     0.035 C 
BRANCH  19  22
ATOM     22  C37 LI8 A 501       1.776  48.866  44.390  1.00  0.00     0.232 C 
ATOM     23  O38 LI8 A 501       2.101  50.008  44.792  1.00  0.00    -0.272 OA
ATOM     24  N39 LI8 A 501       1.830  47.907  45.309  1.00  0.00    -0.369 N 
ATOM     25  H   LI8 A 501       1.590  46.983  45.070  1.00  0.00     0.159 HD
ATOM     26  H   LI8 A 501       2.111  48.121  46.227  1.00  0.00     0.159 HD
ENDBRANCH  19  22
ENDBRANCH  16  19
ENDBRANCH  14  15
ENDBRANCH  13  14
ENDBRANCH  12  13
ENDBRANCH  10  12
ENDBRANCH   2  10
BRANCH   5  27
ATOM     27  N8  LI8 A 501      -7.574  43.504  44.018  1.00  0.00    -0.192 N 
ATOM     28  H   LI8 A 501      -8.553  43.422  44.075  1.00  0.00     0.184 HD
BRANCH  27  29
ATOM     29  C10 LI8 A 501      -6.888  42.414  44.386  1.00  0.00     0.051 A 
ATOM     30  C11 LI8 A 501      -5.474  42.360  44.616  1.00  0.00     0.059 A 
ATOM     31  C12 LI8 A 501      -4.853  41.150  45.007  1.00  0.00     0.038 A 
ATOM     32  C13 LI8 A 501      -5.668  39.986  45.160  1.00  0.00     0.029 A 
ATOM     33  C14 LI8 A 501      -7.058  40.026  44.934  1.00  0.00     0.004 A 
ATOM     34  C15 LI8 A 501      -7.658  41.243  44.555  1.00  0.00     0.030 A 
BRANCH  31  35
ATOM     35  N16 LI8 A 501      -3.521  41.162  45.244  1.00  0.00    -0.309 N 
ATOM     36  C18 LI8 A 501      -2.794  40.350  46.011  1.00  0.00     0.322 C 
ATOM     37  O19 LI8 A 501      -3.336  39.390  46.597  1.00  0.00    -0.247 OA
ATOM     38  N20 LI8 A 501      -1.474  40.569  46.199  1.00  0.00    -0.334 N 
ATOM     39  C24 LI8 A 501      -0.659  39.798  47.076  1.00  0.00     0.127 C 
ATOM     40  C21 LI8 A 501      -0.732  41.635  45.622  1.00  0.00     0.127 C 
ATOM     41  C23 LI8 A 501       0.210  40.862  47.762  1.00  0.00     0.022 C 
ATOM     42  C22 LI8 A 501       0.329  41.991  46.696  1.00  0.00     0.022 C 
ATOM     43  H   LI8 A 501      -3.017  41.872  44.785  1.00  0.00     0.170 HD
ENDBRANCH  31  35
ENDBRANCH  27  29
ENDBRANCH   5  27
TORSDOF 10
ENDMDL
MODEL 24
REMARK VINA RESULT:    -2.481      2.642      7.160
REMARK INTER + INTRA:          -5.831
REMARK INTER:                  -4.403
REMARK INTRA:                  -1.428
REMARK UNBOUND:                -1.899
REMARK  10 active torsions:
REMARK  status: ('A' for Active; 'I' for Inactive)
REMARK    1  A    between atoms: C2_2  and  N25_25 
REMARK    2  A    between atoms: C4_5  and  N8_10 
REMARK    3  A    between atoms: N8_10  and  C10_11 
REMARK    4  A    between atoms: C12_13  and  N16_17 
REMARK       I    between atoms: N16_17  and  C18_18 
REMARK       I    between atoms: C18_18  and  N20_20 
REMARK    5  A    between atoms: N25_25  and  C27_26 
REMARK    6  A    between atoms: C27_26  and  C28_27 
REMARK    7  A    between atoms: C28_27  and  C33_31 
REMARK    8  A    between atoms: N29_28  and  C33_31 
REMARK       I    between atoms: N29_28  and  C31_29 
REMARK    9  A    between atoms: C31_29  and  C34_32 
REMARK   10  A    between atoms: C34_32  and  C37_35 
REMARK       I    between atoms: C37_35  and  N39_37 
ROOT
ATOM      1  C1  LI8 A 501       0.871  44.190  47.189  1.00  0.00     0.071 A 
ATOM      2  C2  LI8 A 501       1.161  43.590  45.918  1.00  0.00     0.135 A 
ATOM      3  N3  LI8 A 501       1.547  44.412  44.914  1.00  0.00    -0.175 N 
ATOM      4  H3  LI8 A 501       1.749  44.001  44.003  1.00  0.00     0.186 HD
ATOM      5  C4  LI8 A 501       1.677  45.751  45.059  1.00  0.00     0.684 A 
ATOM      6  N5  LI8 A 501       1.419  46.298  46.260  1.00  0.00    -0.200 N 
ATOM      7  H5  LI8 A 501       1.528  47.305  46.374  1.00  0.00     0.183 HD
ATOM      8  C6  LI8 A 501       1.025  45.570  47.309  1.00  0.00     0.129 A 
ATOM      9 BR7  LI8 A 501       0.266  43.254  48.688  1.00  0.00    -0.046 Br
ENDROOT
BRANCH   2  10
ATOM     10  N25 LI8 A 501       1.045  42.252  45.700  1.00  0.00    -0.375 N 
ATOM     11  H   LI8 A 501       0.156  41.913  45.447  1.00  0.00     0.161 HD
BRANCH  10  12
ATOM     12  C27 LI8 A 501       2.103  41.298  45.807  1.00  0.00     0.123 C 
BRANCH  12  13
ATOM     13  C28 LI8 A 501       2.095  40.564  47.165  1.00  0.00     0.039 C 
BRANCH  13  14
ATOM     14  C33 LI8 A 501       1.320  39.228  47.154  1.00  0.00     0.124 C 
BRANCH  14  15
ATOM     15  N29 LI8 A 501      -0.092  39.395  47.377  1.00  0.00    -0.360 N 
ATOM     16  C31 LI8 A 501      -1.064  39.289  46.424  1.00  0.00     0.234 C 
ATOM     17  O32 LI8 A 501      -0.699  39.032  45.226  1.00  0.00    -0.272 OA
ATOM     18  H   LI8 A 501      -0.383  39.605  48.294  1.00  0.00     0.162 HD
BRANCH  16  19
ATOM     19  C34 LI8 A 501      -2.564  39.449  46.721  1.00  0.00     0.114 C 
ATOM     20  C36 LI8 A 501      -2.850  39.808  48.228  1.00  0.00     0.035 C 
ATOM     21  C35 LI8 A 501      -3.288  38.089  46.436  1.00  0.00     0.035 C 
BRANCH  19  22
ATOM     22  C37 LI8 A 501      -3.158  40.469  45.814  1.00  0.00     0.232 C 
ATOM     23  O38 LI8 A 501      -4.388  40.567  45.595  1.00  0.00    -0.272 OA
ATOM     24  N39 LI8 A 501      -2.397  41.343  45.163  1.00  0.00    -0.369 N 
ATOM     25  H   LI8 A 501      -1.420  41.330  45.283  1.00  0.00     0.159 HD
ATOM     26  H   LI8 A 501      -2.811  42.004  44.562  1.00  0.00     0.159 HD
ENDBRANCH  19  22
ENDBRANCH  16  19
ENDBRANCH  14  15
ENDBRANCH  13  14
ENDBRANCH  12  13
ENDBRANCH  10  12
ENDBRANCH   2  10
BRANCH   5  27
ATOM     27  N8  LI8 A 501       2.056  46.580  44.082  1.00  0.00    -0.192 N 
ATOM     28  H   LI8 A 501       2.998  46.501  43.807  1.00  0.00     0.184 HD
BRANCH  27  29
ATOM     29  C10 LI8 A 501       1.345  47.503  43.423  1.00  0.00     0.051 A 
ATOM     30  C11 LI8 A 501      -0.081  47.645  43.471  1.00  0.00     0.059 A 
ATOM     31  C12 LI8 A 501      -0.729  48.664  42.732  1.00  0.00     0.038 A 
ATOM     32  C13 LI8 A 501       0.070  49.540  41.936  1.00  0.00     0.029 A 
ATOM     33  C14 LI8 A 501       1.473  49.409  41.879  1.00  0.00     0.004 A 
ATOM     34  C15 LI8 A 501       2.099  48.394  42.629  1.00  0.00     0.030 A 
BRANCH  31  35
ATOM     35  N16 LI8 A 501      -2.073  48.774  42.839  1.00  0.00    -0.309 N 
ATOM     36  C18 LI8 A 501      -3.018  47.878  42.557  1.00  0.00     0.322 C 
ATOM     37  O19 LI8 A 501      -2.701  46.733  42.174  1.00  0.00    -0.247 OA
ATOM     38  N20 LI8 A 501      -4.328  48.199  42.643  1.00  0.00    -0.334 N 
ATOM     39  C24 LI8 A 501      -5.385  47.322  42.269  1.00  0.00     0.127 C 
ATOM     40  C21 LI8 A 501      -4.835  49.467  43.036  1.00  0.00     0.127 C 
ATOM     41  C23 LI8 A 501      -6.359  48.251  41.530  1.00  0.00     0.022 C 
ATOM     42  C22 LI8 A 501      -6.131  49.639  42.201  1.00  0.00     0.022 C 
ATOM     43  H   LI8 A 501      -2.400  49.642  43.172  1.00  0.00     0.170 HD
ENDBRANCH  31  35
ENDBRANCH  27  29
ENDBRANCH   5  27
TORSDOF 10
ENDMDL
MODEL 25
REMARK VINA RESULT:    -2.435      1.924      5.856
REMARK INTER + INTRA:          -5.757
REMARK INTER:                  -5.259
REMARK INTRA:                  -0.498
REMARK UNBOUND:                -1.899
REMARK  10 active torsions:
REMARK  status: ('A' for Active; 'I' for Inactive)
REMARK    1  A    between atoms: C2_2  and  N25_25 
REMARK    2  A    between atoms: C4_5  and  N8_10 
REMARK    3  A    between atoms: N8_10  and  C10_11 
REMARK    4  A    between atoms: C12_13  and  N16_17 
REMARK       I    between atoms: N16_17  and  C18_18 
REMARK       I    between atoms: C18_18  and  N20_20 
REMARK    5  A    between atoms: N25_25  and  C27_26 
REMARK    6  A    between atoms: C27_26  and  C28_27 
REMARK    7  A    between atoms: C28_27  and  C33_31 
REMARK    8  A    between atoms: N29_28  and  C33_31 
REMARK       I    between atoms: N29_28  and  C31_29 
REMARK    9  A    between atoms: C31_29  and  C34_32 
REMARK   10  A    between atoms: C34_32  and  C37_35 
REMARK       I    between atoms: C37_35  and  N39_37 
ROOT
ATOM      1  C1  LI8 A 501      -6.048  41.238  44.664  1.00  0.00     0.071 A 
ATOM      2  C2  LI8 A 501      -4.660  41.607  44.686  1.00  0.00     0.135 A 
ATOM      3  N3  LI8 A 501      -4.365  42.927  44.673  1.00  0.00    -0.175 N 
ATOM      4  H3  LI8 A 501      -3.384  43.204  44.681  1.00  0.00     0.186 HD
ATOM      5  C4  LI8 A 501      -5.307  43.898  44.651  1.00  0.00     0.684 A 
ATOM      6  N5  LI8 A 501      -6.603  43.540  44.649  1.00  0.00    -0.200 N 
ATOM      7  H5  LI8 A 501      -7.314  44.272  44.645  1.00  0.00     0.183 HD
ATOM      8  C6  LI8 A 501      -6.994  42.262  44.653  1.00  0.00     0.129 A 
ATOM      9 BR7  LI8 A 501      -6.676  39.480  44.616  1.00  0.00    -0.046 Br
ENDROOT
BRANCH   2  10
ATOM     10  N25 LI8 A 501      -3.662  40.683  44.701  1.00  0.00    -0.375 N 
ATOM     11  H   LI8 A 501      -3.000  40.723  43.973  1.00  0.00     0.161 HD
BRANCH  10  12
ATOM     12  C27 LI8 A 501      -3.492  39.659  45.684  1.00  0.00     0.123 C 
BRANCH  12  13
ATOM     13  C28 LI8 A 501      -2.600  40.116  46.858  1.00  0.00     0.039 C 
BRANCH  13  14
ATOM     14  C33 LI8 A 501      -1.097  39.813  46.663  1.00  0.00     0.124 C 
BRANCH  14  15
ATOM     15  N29 LI8 A 501      -0.336  40.970  46.272  1.00  0.00    -0.360 N 
ATOM     16  C31 LI8 A 501       0.331  41.805  47.120  1.00  0.00     0.234 C 
ATOM     17  O32 LI8 A 501       0.272  41.555  48.372  1.00  0.00    -0.272 OA
ATOM     18  H   LI8 A 501      -0.294  41.178  45.310  1.00  0.00     0.162 HD
BRANCH  16  19
ATOM     19  C34 LI8 A 501       1.155  43.014  46.646  1.00  0.00     0.114 C 
ATOM     20  C36 LI8 A 501       2.075  42.677  45.413  1.00  0.00     0.035 C 
ATOM     21  C35 LI8 A 501       2.105  43.470  47.807  1.00  0.00     0.035 C 
BRANCH  19  22
ATOM     22  C37 LI8 A 501       0.253  44.156  46.334  1.00  0.00     0.232 C 
ATOM     23  O38 LI8 A 501       0.306  45.261  46.924  1.00  0.00    -0.272 OA
ATOM     24  N39 LI8 A 501      -0.689  44.059  45.401  1.00  0.00    -0.369 N 
ATOM     25  H   LI8 A 501      -0.794  43.223  44.893  1.00  0.00     0.159 HD
ATOM     26  H   LI8 A 501      -1.280  44.824  45.217  1.00  0.00     0.159 HD
ENDBRANCH  19  22
ENDBRANCH  16  19
ENDBRANCH  14  15
ENDBRANCH  13  14
ENDBRANCH  12  13
ENDBRANCH  10  12
ENDBRANCH   2  10
BRANCH   5  27
ATOM     27  N8  LI8 A 501      -5.038  45.207  44.638  1.00  0.00    -0.192 N 
ATOM     28  H   LI8 A 501      -5.225  45.681  45.481  1.00  0.00     0.184 HD
BRANCH  27  29
ATOM     29  C10 LI8 A 501      -4.553  45.969  43.650  1.00  0.00     0.051 A 
ATOM     30  C11 LI8 A 501      -3.205  46.447  43.555  1.00  0.00     0.059 A 
ATOM     31  C12 LI8 A 501      -2.799  47.245  42.459  1.00  0.00     0.038 A 
ATOM     32  C13 LI8 A 501      -3.766  47.567  41.457  1.00  0.00     0.029 A 
ATOM     33  C14 LI8 A 501      -5.095  47.104  41.541  1.00  0.00     0.004 A 
ATOM     34  C15 LI8 A 501      -5.475  46.304  42.635  1.00  0.00     0.030 A 
BRANCH  31  35
ATOM     35  N16 LI8 A 501      -1.507  47.643  42.400  1.00  0.00    -0.309 N 
ATOM     36  C18 LI8 A 501      -0.664  47.917  43.394  1.00  0.00     0.322 C 
ATOM     37  O19 LI8 A 501      -1.025  47.773  44.581  1.00  0.00    -0.247 OA
ATOM     38  N20 LI8 A 501       0.577  48.389  43.143  1.00  0.00    -0.334 N 
ATOM     39  C24 LI8 A 501       1.494  48.790  44.156  1.00  0.00     0.127 C 
ATOM     40  C21 LI8 A 501       1.113  48.630  41.849  1.00  0.00     0.127 C 
ATOM     41  C23 LI8 A 501       2.104  50.076  43.580  1.00  0.00     0.022 C 
ATOM     42  C22 LI8 A 501       2.037  49.861  42.038  1.00  0.00     0.022 C 
ATOM     43  H   LI8 A 501      -1.138  47.744  41.493  1.00  0.00     0.170 HD
ENDBRANCH  31  35
ENDBRANCH  27  29
ENDBRANCH   5  27
TORSDOF 10
ENDMDL
MODEL 26
REMARK VINA RESULT:    -2.069      2.513      4.712
REMARK INTER + INTRA:          -5.177
REMARK INTER:                  -3.432
REMARK INTRA:                  -1.745
REMARK UNBOUND:                -1.899
REMARK  10 active torsions:
REMARK  status: ('A' for Active; 'I' for Inactive)
REMARK    1  A    between atoms: C2_2  and  N25_25 
REMARK    2  A    between atoms: C4_5  and  N8_10 
REMARK    3  A    between atoms: N8_10  and  C10_11 
REMARK    4  A    between atoms: C12_13  and  N16_17 
REMARK       I    between atoms: N16_17  and  C18_18 
REMARK       I    between atoms: C18_18  and  N20_20 
REMARK    5  A    between atoms: N25_25  and  C27_26 
REMARK    6  A    between atoms: C27_26  and  C28_27 
REMARK    7  A    between atoms: C28_27  and  C33_31 
REMARK    8  A    between atoms: N29_28  and  C33_31 
REMARK       I    between atoms: N29_28  and  C31_29 
REMARK    9  A    between atoms: C31_29  and  C34_32 
REMARK   10  A    between atoms: C34_32  and  C37_35 
REMARK       I    between atoms: C37_35  and  N39_37 
ROOT
ATOM      1  C1  LI8 A 501      -4.812  42.845  43.972  1.00  0.00     0.071 A 
ATOM      2  C2  LI8 A 501      -5.767  43.818  43.521  1.00  0.00     0.135 A 
ATOM      3  N3  LI8 A 501      -5.291  44.904  42.869  1.00  0.00    -0.175 N 
ATOM      4  H3  LI8 A 501      -5.957  45.607  42.549  1.00  0.00     0.186 HD
ATOM      5  C4  LI8 A 501      -3.977  45.103  42.619  1.00  0.00     0.684 A 
ATOM      6  N5  LI8 A 501      -3.094  44.176  43.030  1.00  0.00    -0.200 N 
ATOM      7  H5  LI8 A 501      -2.104  44.319  42.833  1.00  0.00     0.183 HD
ATOM      8  C6  LI8 A 501      -3.466  43.074  43.689  1.00  0.00     0.129 A 
ATOM      9 BR7  LI8 A 501      -5.243  41.308  44.942  1.00  0.00    -0.046 Br
ENDROOT
BRANCH   2  10
ATOM     10  N25 LI8 A 501      -7.103  43.685  43.744  1.00  0.00    -0.375 N 
ATOM     11  H   LI8 A 501      -7.446  42.774  43.893  1.00  0.00     0.161 HD
BRANCH  10  12
ATOM     12  C27 LI8 A 501      -8.050  44.755  43.780  1.00  0.00     0.123 C 
BRANCH  12  13
ATOM     13  C28 LI8 A 501      -8.166  45.479  42.422  1.00  0.00     0.039 C 
BRANCH  13  14
ATOM     14  C33 LI8 A 501      -8.641  46.946  42.529  1.00  0.00     0.124 C 
BRANCH  14  15
ATOM     15  N29 LI8 A 501      -7.714  47.786  43.240  1.00  0.00    -0.360 N 
ATOM     16  C31 LI8 A 501      -6.440  48.074  42.844  1.00  0.00     0.234 C 
ATOM     17  O32 LI8 A 501      -6.019  47.548  41.758  1.00  0.00    -0.272 OA
ATOM     18  H   LI8 A 501      -8.024  48.187  44.084  1.00  0.00     0.162 HD
BRANCH  16  19
ATOM     19  C34 LI8 A 501      -5.498  49.004  43.628  1.00  0.00     0.114 C 
ATOM     20  C36 LI8 A 501      -6.275  50.075  44.483  1.00  0.00     0.035 C 
ATOM     21  C35 LI8 A 501      -4.605  49.797  42.614  1.00  0.00     0.035 C 
BRANCH  19  22
ATOM     22  C37 LI8 A 501      -4.588  48.200  44.489  1.00  0.00     0.232 C 
ATOM     23  O38 LI8 A 501      -4.719  46.966  44.671  1.00  0.00    -0.272 OA
ATOM     24  N39 LI8 A 501      -3.572  48.761  45.137  1.00  0.00    -0.369 N 
ATOM     25  H   LI8 A 501      -3.403  49.726  45.045  1.00  0.00     0.159 HD
ATOM     26  H   LI8 A 501      -2.989  48.211  45.708  1.00  0.00     0.159 HD
ENDBRANCH  19  22
ENDBRANCH  16  19
ENDBRANCH  14  15
ENDBRANCH  13  14
ENDBRANCH  12  13
ENDBRANCH  10  12
ENDBRANCH   2  10
BRANCH   5  27
ATOM     27  N8  LI8 A 501      -3.485  46.166  41.977  1.00  0.00    -0.192 N 
ATOM     28  H   LI8 A 501      -4.039  46.500  41.234  1.00  0.00     0.184 HD
BRANCH  27  29
ATOM     29  C10 LI8 A 501      -2.353  46.846  42.195  1.00  0.00     0.051 A 
ATOM     30  C11 LI8 A 501      -1.585  46.817  43.405  1.00  0.00     0.059 A 
ATOM     31  C12 LI8 A 501      -0.396  47.576  43.522  1.00  0.00     0.038 A 
ATOM     32  C13 LI8 A 501       0.015  48.374  42.410  1.00  0.00     0.029 A 
ATOM     33  C14 LI8 A 501      -0.733  48.412  41.216  1.00  0.00     0.004 A 
ATOM     34  C15 LI8 A 501      -1.908  47.642  41.116  1.00  0.00     0.030 A 
BRANCH  31  35
ATOM     35  N16 LI8 A 501       0.309  47.487  44.674  1.00  0.00    -0.309 N 
ATOM     36  C18 LI8 A 501       0.915  46.430  45.211  1.00  0.00     0.322 C 
ATOM     37  O19 LI8 A 501       0.916  45.335  44.611  1.00  0.00    -0.247 OA
ATOM     38  N20 LI8 A 501       1.503  46.508  46.425  1.00  0.00    -0.334 N 
ATOM     39  C24 LI8 A 501       2.086  45.397  47.098  1.00  0.00     0.127 C 
ATOM     40  C21 LI8 A 501       1.555  47.675  47.234  1.00  0.00     0.127 C 
ATOM     41  C23 LI8 A 501       1.629  45.595  48.551  1.00  0.00     0.022 C 
ATOM     42  C22 LI8 A 501       1.484  47.140  48.688  1.00  0.00     0.022 C 
ATOM     43  H   LI8 A 501       0.384  48.323  45.188  1.00  0.00     0.170 HD
ENDBRANCH  31  35
ENDBRANCH  27  29
ENDBRANCH   5  27
TORSDOF 10
ENDMDL
MODEL 27
REMARK VINA RESULT:    -2.030      2.749      6.035
REMARK INTER + INTRA:          -5.115
REMARK INTER:                  -4.553
REMARK INTRA:                  -0.563
REMARK UNBOUND:                -1.899
REMARK  10 active torsions:
REMARK  status: ('A' for Active; 'I' for Inactive)
REMARK    1  A    between atoms: C2_2  and  N25_25 
REMARK    2  A    between atoms: C4_5  and  N8_10 
REMARK    3  A    between atoms: N8_10  and  C10_11 
REMARK    4  A    between atoms: C12_13  and  N16_17 
REMARK       I    between atoms: N16_17  and  C18_18 
REMARK       I    between atoms: C18_18  and  N20_20 
REMARK    5  A    between atoms: N25_25  and  C27_26 
REMARK    6  A    between atoms: C27_26  and  C28_27 
REMARK    7  A    between atoms: C28_27  and  C33_31 
REMARK    8  A    between atoms: N29_28  and  C33_31 
REMARK       I    between atoms: N29_28  and  C31_29 
REMARK    9  A    between atoms: C31_29  and  C34_32 
REMARK   10  A    between atoms: C34_32  and  C37_35 
REMARK       I    between atoms: C37_35  and  N39_37 
ROOT
ATOM      1  C1  LI8 A 501       0.293  46.877  44.795  1.00  0.00     0.071 A 
ATOM      2  C2  LI8 A 501      -0.618  45.801  45.068  1.00  0.00     0.135 A 
ATOM      3  N3  LI8 A 501      -0.109  44.681  45.631  1.00  0.00    -0.175 N 
ATOM      4  H3  LI8 A 501      -0.743  43.906  45.824  1.00  0.00     0.186 HD
ATOM      5  C4  LI8 A 501       1.197  44.538  45.952  1.00  0.00     0.684 A 
ATOM      6  N5  LI8 A 501       2.037  45.560  45.708  1.00  0.00    -0.200 N 
ATOM      7  H5  LI8 A 501       3.020  45.459  45.960  1.00  0.00     0.183 HD
ATOM      8  C6  LI8 A 501       1.631  46.704  45.147  1.00  0.00     0.129 A 
ATOM      9 BR7  LI8 A 501      -0.182  48.484  43.969  1.00  0.00    -0.046 Br
ENDROOT
BRANCH   2  10
ATOM     10  N25 LI8 A 501      -1.942  45.874  44.765  1.00  0.00    -0.375 N 
ATOM     11  H   LI8 A 501      -2.514  46.405  45.367  1.00  0.00     0.161 HD
BRANCH  10  12
ATOM     12  C27 LI8 A 501      -2.576  45.245  43.649  1.00  0.00     0.123 C 
BRANCH  12  13
ATOM     13  C28 LI8 A 501      -3.894  44.546  44.041  1.00  0.00     0.039 C 
BRANCH  13  14
ATOM     14  C33 LI8 A 501      -5.166  45.321  43.628  1.00  0.00     0.124 C 
BRANCH  14  15
ATOM     15  N29 LI8 A 501      -4.876  46.531  42.904  1.00  0.00    -0.360 N 
ATOM     16  C31 LI8 A 501      -4.709  47.767  43.459  1.00  0.00     0.234 C 
ATOM     17  O32 LI8 A 501      -4.831  47.873  44.727  1.00  0.00    -0.272 OA
ATOM     18  H   LI8 A 501      -4.791  46.462  41.926  1.00  0.00     0.162 HD
BRANCH  16  19
ATOM     19  C34 LI8 A 501      -4.370  49.025  42.641  1.00  0.00     0.114 C 
ATOM     20  C36 LI8 A 501      -3.522  50.071  43.458  1.00  0.00     0.035 C 
ATOM     21  C35 LI8 A 501      -5.703  49.742  42.235  1.00  0.00     0.035 C 
BRANCH  19  22
ATOM     22  C37 LI8 A 501      -3.669  48.643  41.385  1.00  0.00     0.232 C 
ATOM     23  O38 LI8 A 501      -3.878  47.567  40.776  1.00  0.00    -0.272 OA
ATOM     24  N39 LI8 A 501      -2.753  49.433  40.835  1.00  0.00    -0.369 N 
ATOM     25  H   LI8 A 501      -2.533  50.296  41.254  1.00  0.00     0.159 HD
ATOM     26  H   LI8 A 501      -2.296  49.156  40.009  1.00  0.00     0.159 HD
ENDBRANCH  19  22
ENDBRANCH  16  19
ENDBRANCH  14  15
ENDBRANCH  13  14
ENDBRANCH  12  13
ENDBRANCH  10  12
ENDBRANCH   2  10
BRANCH   5  27
ATOM     27  N8  LI8 A 501       1.720  43.442  46.508  1.00  0.00    -0.192 N 
ATOM     28  H   LI8 A 501       2.686  43.488  46.696  1.00  0.00     0.184 HD
BRANCH  27  29
ATOM     29  C10 LI8 A 501       1.127  42.292  46.848  1.00  0.00     0.051 A 
ATOM     30  C11 LI8 A 501      -0.147  41.840  46.370  1.00  0.00     0.059 A 
ATOM     31  C12 LI8 A 501      -0.678  40.599  46.795  1.00  0.00     0.038 A 
ATOM     32  C13 LI8 A 501       0.082  39.813  47.715  1.00  0.00     0.029 A 
ATOM     33  C14 LI8 A 501       1.335  40.247  48.193  1.00  0.00     0.004 A 
ATOM     34  C15 LI8 A 501       1.849  41.481  47.751  1.00  0.00     0.030 A 
BRANCH  31  35
ATOM     35  N16 LI8 A 501      -1.869  40.205  46.288  1.00  0.00    -0.309 N 
ATOM     36  C18 LI8 A 501      -2.577  40.734  45.290  1.00  0.00     0.322 C 
ATOM     37  O19 LI8 A 501      -2.129  41.709  44.652  1.00  0.00    -0.247 OA
ATOM     38  N20 LI8 A 501      -3.800  40.254  44.975  1.00  0.00    -0.334 N 
ATOM     39  C24 LI8 A 501      -4.647  40.829  43.986  1.00  0.00     0.127 C 
ATOM     40  C21 LI8 A 501      -4.447  39.172  45.630  1.00  0.00     0.127 C 
ATOM     41  C23 LI8 A 501      -6.032  40.780  44.647  1.00  0.00     0.022 C 
ATOM     42  C22 LI8 A 501      -5.953  39.539  45.585  1.00  0.00     0.022 C 
ATOM     43  H   LI8 A 501      -2.270  39.415  46.717  1.00  0.00     0.170 HD
ENDBRANCH  31  35
ENDBRANCH  27  29
ENDBRANCH   5  27
TORSDOF 10
ENDMDL
MODEL 28
REMARK VINA RESULT:    -1.999      2.362      6.876
REMARK INTER + INTRA:          -5.066
REMARK INTER:                  -4.791
REMARK INTRA:                  -0.275
REMARK UNBOUND:                -1.899
REMARK  10 active torsions:
REMARK  status: ('A' for Active; 'I' for Inactive)
REMARK    1  A    between atoms: C2_2  and  N25_25 
REMARK    2  A    between atoms: C4_5  and  N8_10 
REMARK    3  A    between atoms: N8_10  and  C10_11 
REMARK    4  A    between atoms: C12_13  and  N16_17 
REMARK       I    between atoms: N16_17  and  C18_18 
REMARK       I    between atoms: C18_18  and  N20_20 
REMARK    5  A    between atoms: N25_25  and  C27_26 
REMARK    6  A    between atoms: C27_26  and  C28_27 
REMARK    7  A    between atoms: C28_27  and  C33_31 
REMARK    8  A    between atoms: N29_28  and  C33_31 
REMARK       I    between atoms: N29_28  and  C31_29 
REMARK    9  A    between atoms: C31_29  and  C34_32 
REMARK   10  A    between atoms: C34_32  and  C37_35 
REMARK       I    between atoms: C37_35  and  N39_37 
ROOT
ATOM      1  C1  LI8 A 501      -2.641  40.899  44.531  1.00  0.00     0.071 A 
ATOM      2  C2  LI8 A 501      -3.617  40.442  45.480  1.00  0.00     0.135 A 
ATOM      3  N3  LI8 A 501      -4.812  41.077  45.501  1.00  0.00    -0.175 N 
ATOM      4  H3  LI8 A 501      -5.512  40.768  46.174  1.00  0.00     0.186 HD
ATOM      5  C4  LI8 A 501      -5.123  42.100  44.673  1.00  0.00     0.684 A 
ATOM      6  N5  LI8 A 501      -4.207  42.507  43.777  1.00  0.00    -0.200 N 
ATOM      7  H5  LI8 A 501      -4.444  43.271  43.144  1.00  0.00     0.183 HD
ATOM      8  C6  LI8 A 501      -2.996  41.948  43.685  1.00  0.00     0.129 A 
ATOM      9 BR7  LI8 A 501      -0.912  40.209  44.374  1.00  0.00    -0.046 Br
ENDROOT
BRANCH   2  10
ATOM     10  N25 LI8 A 501      -3.369  39.423  46.347  1.00  0.00    -0.375 N 
ATOM     11  H   LI8 A 501      -4.081  39.192  46.987  1.00  0.00     0.161 HD
BRANCH  10  12
ATOM     12  C27 LI8 A 501      -2.162  38.659  46.407  1.00  0.00     0.123 C 
BRANCH  12  13
ATOM     13  C28 LI8 A 501      -1.866  38.144  47.832  1.00  0.00     0.039 C 
BRANCH  13  14
ATOM     14  C33 LI8 A 501      -1.023  39.114  48.690  1.00  0.00     0.124 C 
BRANCH  14  15
ATOM     15  N29 LI8 A 501      -0.081  39.877  47.913  1.00  0.00    -0.360 N 
ATOM     16  C31 LI8 A 501       0.047  41.236  47.931  1.00  0.00     0.234 C 
ATOM     17  O32 LI8 A 501      -0.741  41.899  48.688  1.00  0.00    -0.272 OA
ATOM     18  H   LI8 A 501       0.523  39.376  47.318  1.00  0.00     0.162 HD
BRANCH  16  19
ATOM     19  C34 LI8 A 501       1.092  42.000  47.101  1.00  0.00     0.114 C 
ATOM     20  C36 LI8 A 501       1.937  41.054  46.167  1.00  0.00     0.035 C 
ATOM     21  C35 LI8 A 501       2.105  42.695  48.074  1.00  0.00     0.035 C 
BRANCH  19  22
ATOM     22  C37 LI8 A 501       0.429  43.070  46.308  1.00  0.00     0.232 C 
ATOM     23  O38 LI8 A 501       1.058  43.955  45.679  1.00  0.00    -0.272 OA
ATOM     24  N39 LI8 A 501      -0.895  43.156  46.231  1.00  0.00    -0.369 N 
ATOM     25  H   LI8 A 501      -1.458  42.498  46.697  1.00  0.00     0.159 HD
ATOM     26  H   LI8 A 501      -1.311  43.878  45.707  1.00  0.00     0.159 HD
ENDBRANCH  19  22
ENDBRANCH  16  19
ENDBRANCH  14  15
ENDBRANCH  13  14
ENDBRANCH  12  13
ENDBRANCH  10  12
ENDBRANCH   2  10
BRANCH   5  27
ATOM     27  N8  LI8 A 501      -6.295  42.741  44.676  1.00  0.00    -0.192 N 
ATOM     28  H   LI8 A 501      -7.003  42.317  45.215  1.00  0.00     0.184 HD
BRANCH  27  29
ATOM     29  C10 LI8 A 501      -6.651  43.873  44.056  1.00  0.00     0.051 A 
ATOM     30  C11 LI8 A 501      -5.816  45.025  43.886  1.00  0.00     0.059 A 
ATOM     31  C12 LI8 A 501      -6.298  46.170  43.207  1.00  0.00     0.038 A 
ATOM     32  C13 LI8 A 501      -7.634  46.150  42.702  1.00  0.00     0.029 A 
ATOM     33  C14 LI8 A 501      -8.465  45.023  42.864  1.00  0.00     0.004 A 
ATOM     34  C15 LI8 A 501      -7.964  43.891  43.535  1.00  0.00     0.030 A 
BRANCH  31  35
ATOM     35  N16 LI8 A 501      -5.457  47.219  43.046  1.00  0.00    -0.309 N 
ATOM     36  C18 LI8 A 501      -4.465  47.377  42.171  1.00  0.00     0.322 C 
ATOM     37  O19 LI8 A 501      -4.237  46.496  41.316  1.00  0.00    -0.247 OA
ATOM     38  N20 LI8 A 501      -3.667  48.466  42.215  1.00  0.00    -0.334 N 
ATOM     39  C24 LI8 A 501      -2.534  48.654  41.373  1.00  0.00     0.127 C 
ATOM     40  C21 LI8 A 501      -3.788  49.531  43.147  1.00  0.00     0.127 C 
ATOM     41  C23 LI8 A 501      -1.483  49.231  42.332  1.00  0.00     0.022 C 
ATOM     42  C22 LI8 A 501      -2.329  49.995  43.395  1.00  0.00     0.022 C 
ATOM     43  H   LI8 A 501      -5.600  47.972  43.663  1.00  0.00     0.170 HD
ENDBRANCH  31  35
ENDBRANCH  27  29
ENDBRANCH   5  27
TORSDOF 10
ENDMDL
MODEL 29
REMARK VINA RESULT:    -1.996      2.433      6.496
REMARK INTER + INTRA:          -5.062
REMARK INTER:                  -4.279
REMARK INTRA:                  -0.782
REMARK UNBOUND:                -1.899
REMARK  10 active torsions:
REMARK  status: ('A' for Active; 'I' for Inactive)
REMARK    1  A    between atoms: C2_2  and  N25_25 
REMARK    2  A    between atoms: C4_5  and  N8_10 
REMARK    3  A    between atoms: N8_10  and  C10_11 
REMARK    4  A    between atoms: C12_13  and  N16_17 
REMARK       I    between atoms: N16_17  and  C18_18 
REMARK       I    between atoms: C18_18  and  N20_20 
REMARK    5  A    between atoms: N25_25  and  C27_26 
REMARK    6  A    between atoms: C27_26  and  C28_27 
REMARK    7  A    between atoms: C28_27  and  C33_31 
REMARK    8  A    between atoms: N29_28  and  C33_31 
REMARK       I    between atoms: N29_28  and  C31_29 
REMARK    9  A    between atoms: C31_29  and  C34_32 
REMARK   10  A    between atoms: C34_32  and  C37_35 
REMARK       I    between atoms: C37_35  and  N39_37 
ROOT
ATOM      1  C1  LI8 A 501       0.733  45.240  47.018  1.00  0.00     0.071 A 
ATOM      2  C2  LI8 A 501       0.317  45.265  45.644  1.00  0.00     0.135 A 
ATOM      3  N3  LI8 A 501      -0.178  44.119  45.121  1.00  0.00    -0.175 N 
ATOM      4  H3  LI8 A 501      -0.471  44.120  44.145  1.00  0.00     0.186 HD
ATOM      5  C4  LI8 A 501      -0.305  42.974  45.830  1.00  0.00     0.684 A 
ATOM      6  N5  LI8 A 501       0.071  42.969  47.121  1.00  0.00    -0.200 N 
ATOM      7  H5  LI8 A 501      -0.036  42.110  47.660  1.00  0.00     0.183 HD
ATOM      8  C6  LI8 A 501       0.579  44.048  47.724  1.00  0.00     0.129 A 
ATOM      9 BR7  LI8 A 501       1.499  46.686  47.919  1.00  0.00    -0.046 Br
ENDROOT
BRANCH   2  10
ATOM     10  N25 LI8 A 501       0.423  46.380  44.871  1.00  0.00    -0.375 N 
ATOM     11  H   LI8 A 501      -0.295  46.544  44.217  1.00  0.00     0.161 HD
BRANCH  10  12
ATOM     12  C27 LI8 A 501       1.488  47.331  44.926  1.00  0.00     0.123 C 
BRANCH  12  13
ATOM     13  C28 LI8 A 501       2.103  47.603  43.537  1.00  0.00     0.039 C 
BRANCH  13  14
ATOM     14  C33 LI8 A 501       1.061  47.844  42.422  1.00  0.00     0.124 C 
BRANCH  14  15
ATOM     15  N29 LI8 A 501      -0.293  47.624  42.862  1.00  0.00    -0.360 N 
ATOM     16  C31 LI8 A 501      -1.382  48.343  42.464  1.00  0.00     0.234 C 
ATOM     17  O32 LI8 A 501      -1.196  49.303  41.641  1.00  0.00    -0.272 OA
ATOM     18  H   LI8 A 501      -0.445  46.894  43.504  1.00  0.00     0.162 HD
BRANCH  16  19
ATOM     19  C34 LI8 A 501      -2.814  48.047  42.943  1.00  0.00     0.114 C 
ATOM     20  C36 LI8 A 501      -3.857  48.026  41.763  1.00  0.00     0.035 C 
ATOM     21  C35 LI8 A 501      -3.266  49.181  43.926  1.00  0.00     0.035 C 
BRANCH  19  22
ATOM     22  C37 LI8 A 501      -2.844  46.764  43.697  1.00  0.00     0.232 C 
ATOM     23  O38 LI8 A 501      -2.106  45.787  43.429  1.00  0.00    -0.272 OA
ATOM     24  N39 LI8 A 501      -3.683  46.576  44.710  1.00  0.00    -0.369 N 
ATOM     25  H   LI8 A 501      -4.296  47.298  44.982  1.00  0.00     0.159 HD
ATOM     26  H   LI8 A 501      -3.692  45.717  45.189  1.00  0.00     0.159 HD
ENDBRANCH  19  22
ENDBRANCH  16  19
ENDBRANCH  14  15
ENDBRANCH  13  14
ENDBRANCH  12  13
ENDBRANCH  10  12
ENDBRANCH   2  10
BRANCH   5  27
ATOM     27  N8  LI8 A 501      -0.792  41.833  45.335  1.00  0.00    -0.192 N 
ATOM     28  H   LI8 A 501      -0.138  41.270  44.859  1.00  0.00     0.184 HD
BRANCH  27  29
ATOM     29  C10 LI8 A 501      -2.036  41.341  45.389  1.00  0.00     0.051 A 
ATOM     30  C11 LI8 A 501      -3.195  41.944  44.800  1.00  0.00     0.059 A 
ATOM     31  C12 LI8 A 501      -4.465  41.330  44.917  1.00  0.00     0.038 A 
ATOM     32  C13 LI8 A 501      -4.563  40.102  45.640  1.00  0.00     0.029 A 
ATOM     33  C14 LI8 A 501      -3.431  39.500  46.225  1.00  0.00     0.004 A 
ATOM     34  C15 LI8 A 501      -2.175  40.122  46.089  1.00  0.00     0.030 A 
BRANCH  31  35
ATOM     35  N16 LI8 A 501      -5.521  41.925  44.314  1.00  0.00    -0.309 N 
ATOM     36  C18 LI8 A 501      -5.648  43.178  43.880  1.00  0.00     0.322 C 
ATOM     37  O19 LI8 A 501      -4.687  43.971  43.966  1.00  0.00    -0.247 OA
ATOM     38  N20 LI8 A 501      -6.819  43.624  43.377  1.00  0.00    -0.334 N 
ATOM     39  C24 LI8 A 501      -7.051  44.972  42.982  1.00  0.00     0.127 C 
ATOM     40  C21 LI8 A 501      -8.001  42.846  43.245  1.00  0.00     0.127 C 
ATOM     41  C23 LI8 A 501      -8.464  45.250  43.516  1.00  0.00     0.022 C 
ATOM     42  C22 LI8 A 501      -9.155  43.854  43.485  1.00  0.00     0.022 C 
ATOM     43  H   LI8 A 501      -6.308  41.349  44.177  1.00  0.00     0.170 HD
ENDBRANCH  31  35
ENDBRANCH  27  29
ENDBRANCH   5  27
TORSDOF 10
ENDMDL
