MODEL 1
REMARK VINA RESULT:    -6.403      0.000      0.000
REMARK INTER + INTRA:          -7.103
REMARK INTER:                  -7.526
REMARK INTRA:                   0.423
REMARK UNBOUND:                 0.423
REMARK  3 active torsions:
REMARK  status: ('A' for Active; 'I' for Inactive)
REMARK    1  A    between atoms: C_1  and  N_13 
REMARK       I    between atoms: N_6  and  C_8 
REMARK    2  A    between atoms: C_8  and  C_9 
REMARK    3  A    between atoms: N_13  and  C_15 
ROOT
HETATM    1  C   MI1 A1125       5.372  15.751   6.441  1.00  0.00     0.226 C 
HETATM    2  C   MI1 A1125       6.398  15.296   5.524  1.00  0.00     0.068 C 
HETATM    3  N   MI1 A1125       7.198  14.874   4.800  1.00  0.00    -0.197 NA
ENDROOT
BRANCH   1   4
HETATM    4  C   MI1 A1125       4.191  16.332   5.709  1.00  0.00     0.232 C 
HETATM    5  N   MI1 A1125       3.013  16.387   6.413  1.00  0.00    -0.349 N 
HETATM    6  C   MI1 A1125       1.812  16.909   5.778  1.00  0.00     0.151 C 
HETATM    7  C   MI1 A1125       2.821  15.841   7.729  1.00  0.00     0.126 C 
HETATM    8  C   MI1 A1125       0.790  15.794   5.659  1.00  0.00     0.107 C 
HETATM    9  C   MI1 A1125       0.472  15.238   7.053  1.00  0.00     0.007 C 
HETATM   10  C   MI1 A1125       1.750  14.771   7.726  1.00  0.00     0.026 C 
HETATM   11  C   MI1 A1125      -0.215  16.248   7.971  1.00  0.00     0.012 C 
HETATM   12  O   MI1 A1125       4.282  16.747   4.567  1.00  0.00    -0.272 OA
BRANCH   8  13
HETATM   13  N   MI1 A1125      -0.505  16.245   5.137  1.00  0.00    -0.364 N 
HETATM   14  C   MI1 A1125      -0.749  17.637   4.859  1.00  0.00     0.152 C 
BRANCH  13  15
HETATM   15  C   MI1 A1125      -1.255  15.373   4.318  1.00  0.00     0.118 A 
HETATM   16  N   MI1 A1125      -2.240  15.942   3.600  1.00  0.00    -0.338 N 
HETATM   17  C   MI1 A1125      -3.017  15.161   2.844  1.00  0.00     0.183 A 
ATOM     18  HN  MI1 A1125      -2.390  16.950   3.633  1.00  0.00     0.168 HD
HETATM   19  N   MI1 A1125      -2.999  13.840   2.674  1.00  0.00    -0.338 N 
HETATM   20  C   MI1 A1125      -2.015  13.322   3.407  1.00  0.00     0.120 A 
ATOM     21  HN  MI1 A1125      -3.636  13.310   2.079  1.00  0.00     0.168 HD
HETATM   22  C   MI1 A1125      -1.122  13.984   4.225  1.00  0.00     0.053 A 
HETATM   23  N   MI1 A1125      -1.745  11.991   3.442  1.00  0.00    -0.351 N 
HETATM   24  C   MI1 A1125      -0.281  12.960   4.766  1.00  0.00     0.036 A 
HETATM   25  C   MI1 A1125      -0.682  11.752   4.256  1.00  0.00     0.091 A 
HETATM   26  H   MI1 A1125      -2.245  11.300   2.950  1.00  0.00     0.166 HD
ENDBRANCH  13  15
ENDBRANCH   8  13
ENDBRANCH   1   4
TORSDOF 3
ENDMDL
MODEL 2
REMARK VINA RESULT:    -4.372      0.931      1.951
REMARK INTER + INTRA:          -4.717
REMARK INTER:                  -5.119
REMARK INTRA:                   0.403
REMARK UNBOUND:                 0.423
REMARK  3 active torsions:
REMARK  status: ('A' for Active; 'I' for Inactive)
REMARK    1  A    between atoms: C_1  and  N_13 
REMARK       I    between atoms: N_6  and  C_8 
REMARK    2  A    between atoms: C_8  and  C_9 
REMARK    3  A    between atoms: N_13  and  C_15 
ROOT
HETATM    1  C   MI1 A1125       5.762  16.104   7.198  1.00  0.00     0.226 C 
HETATM    2  C   MI1 A1125       6.823  15.482   6.432  1.00  0.00     0.068 C 
HETATM    3  N   MI1 A1125       7.653  14.930   5.841  1.00  0.00    -0.197 NA
ENDROOT
BRANCH   1   4
HETATM    4  C   MI1 A1125       4.576  16.442   6.333  1.00  0.00     0.232 C 
HETATM    5  N   MI1 A1125       3.346  16.361   6.938  1.00  0.00    -0.349 N 
HETATM    6  C   MI1 A1125       2.141  16.645   6.173  1.00  0.00     0.151 C 
HETATM    7  C   MI1 A1125       3.122  15.883   8.275  1.00  0.00     0.126 C 
HETATM    8  C   MI1 A1125       1.312  15.380   6.065  1.00  0.00     0.107 C 
HETATM    9  C   MI1 A1125       0.959  14.877   7.471  1.00  0.00     0.007 C 
HETATM   10  C   MI1 A1125       2.227  14.661   8.277  1.00  0.00     0.026 C 
HETATM   11  C   MI1 A1125       0.050  15.828   8.249  1.00  0.00     0.012 C 
HETATM   12  O   MI1 A1125       4.704  16.787   5.172  1.00  0.00    -0.272 OA
BRANCH   8  13
HETATM   13  N   MI1 A1125       0.015  15.586   5.411  1.00  0.00    -0.364 N 
HETATM   14  C   MI1 A1125      -0.341  16.869   4.860  1.00  0.00     0.152 C 
BRANCH  13  15
HETATM   15  C   MI1 A1125      -0.596  14.503   4.742  1.00  0.00     0.118 A 
HETATM   16  N   MI1 A1125      -0.015  13.303   4.914  1.00  0.00    -0.338 N 
HETATM   17  C   MI1 A1125      -0.517  12.247   4.267  1.00  0.00     0.183 A 
ATOM     18  HN  MI1 A1125       0.795  13.201   5.526  1.00  0.00     0.168 HD
HETATM   19  N   MI1 A1125      -1.544  12.169   3.421  1.00  0.00    -0.338 N 
HETATM   20  C   MI1 A1125      -2.082  13.378   3.279  1.00  0.00     0.120 A 
ATOM     21  HN  MI1 A1125      -1.866  11.319   2.958  1.00  0.00     0.168 HD
HETATM   22  C   MI1 A1125      -1.695  14.560   3.878  1.00  0.00     0.053 A 
HETATM   23  N   MI1 A1125      -3.150  13.619   2.475  1.00  0.00    -0.351 N 
HETATM   24  C   MI1 A1125      -2.607  15.546   3.385  1.00  0.00     0.036 A 
HETATM   25  C   MI1 A1125      -3.493  14.934   2.537  1.00  0.00     0.091 A 
HETATM   26  H   MI1 A1125      -3.610  12.942   1.928  1.00  0.00     0.166 HD
ENDBRANCH  13  15
ENDBRANCH   8  13
ENDBRANCH   1   4
TORSDOF 3
ENDMDL
MODEL 3
REMARK VINA RESULT:    -3.881      1.959      6.862
REMARK INTER + INTRA:          -4.139
REMARK INTER:                  -4.177
REMARK INTRA:                   0.038
REMARK UNBOUND:                 0.423
REMARK  3 active torsions:
REMARK  status: ('A' for Active; 'I' for Inactive)
REMARK    1  A    between atoms: C_1  and  N_13 
REMARK       I    between atoms: N_6  and  C_8 
REMARK    2  A    between atoms: C_8  and  C_9 
REMARK    3  A    between atoms: N_13  and  C_15 
ROOT
HETATM    1  C   MI1 A1125      -1.166  13.699   2.668  1.00  0.00     0.226 C 
HETATM    2  C   MI1 A1125      -2.585  13.985   2.733  1.00  0.00     0.068 C 
HETATM    3  N   MI1 A1125      -3.730  14.154   2.773  1.00  0.00    -0.197 NA
ENDROOT
BRANCH   1   4
HETATM    4  C   MI1 A1125      -0.563  13.561   4.041  1.00  0.00     0.232 C 
HETATM    5  N   MI1 A1125      -0.397  14.728   4.746  1.00  0.00    -0.349 N 
HETATM    6  C   MI1 A1125       0.202  14.694   6.072  1.00  0.00     0.151 C 
HETATM    7  C   MI1 A1125      -0.655  16.042   4.226  1.00  0.00     0.126 C 
HETATM    8  C   MI1 A1125       1.527  15.434   6.037  1.00  0.00     0.107 C 
HETATM    9  C   MI1 A1125       1.295  16.880   5.579  1.00  0.00     0.007 C 
HETATM   10  C   MI1 A1125       0.599  16.890   4.229  1.00  0.00     0.026 C 
HETATM   11  C   MI1 A1125       0.458  17.703   6.558  1.00  0.00     0.012 C 
HETATM   12  O   MI1 A1125      -0.260  12.476   4.505  1.00  0.00    -0.272 OA
BRANCH   8  13
HETATM   13  N   MI1 A1125       2.159  15.561   7.355  1.00  0.00    -0.364 N 
HETATM   14  C   MI1 A1125       1.864  14.628   8.411  1.00  0.00     0.152 C 
BRANCH  13  15
HETATM   15  C   MI1 A1125       3.456  16.112   7.443  1.00  0.00     0.118 A 
HETATM   16  N   MI1 A1125       3.621  17.086   8.355  1.00  0.00    -0.338 N 
HETATM   17  C   MI1 A1125       4.813  17.681   8.451  1.00  0.00     0.183 A 
ATOM     18  HN  MI1 A1125       2.850  17.365   8.961  1.00  0.00     0.168 HD
HETATM   19  N   MI1 A1125       5.931  17.480   7.754  1.00  0.00    -0.338 N 
HETATM   20  C   MI1 A1125       5.718  16.514   6.863  1.00  0.00     0.120 A 
ATOM     21  HN  MI1 A1125       6.808  17.984   7.883  1.00  0.00     0.168 HD
HETATM   22  C   MI1 A1125       4.560  15.796   6.643  1.00  0.00     0.053 A 
HETATM   23  N   MI1 A1125       6.676  16.083   6.001  1.00  0.00    -0.351 N 
HETATM   24  C   MI1 A1125       4.877  14.889   5.583  1.00  0.00     0.036 A 
HETATM   25  C   MI1 A1125       6.185  15.083   5.221  1.00  0.00     0.091 A 
HETATM   26  H   MI1 A1125       7.591  16.441   5.948  1.00  0.00     0.166 HD
ENDBRANCH  13  15
ENDBRANCH   8  13
ENDBRANCH   1   4
TORSDOF 3
ENDMDL
MODEL 4
REMARK VINA RESULT:    -3.493      1.429      2.499
REMARK INTER + INTRA:          -3.683
REMARK INTER:                  -6.715
REMARK INTRA:                   3.032
REMARK UNBOUND:                 0.423
REMARK  3 active torsions:
REMARK  status: ('A' for Active; 'I' for Inactive)
REMARK    1  A    between atoms: C_1  and  N_13 
REMARK       I    between atoms: N_6  and  C_8 
REMARK    2  A    between atoms: C_8  and  C_9 
REMARK    3  A    between atoms: N_13  and  C_15 
ROOT
HETATM    1  C   MI1 A1125       5.386  16.787   7.478  1.00  0.00     0.226 C 
HETATM    2  C   MI1 A1125       6.527  15.897   7.412  1.00  0.00     0.068 C 
HETATM    3  N   MI1 A1125       7.412  15.149   7.399  1.00  0.00    -0.197 NA
ENDROOT
BRANCH   1   4
HETATM    4  C   MI1 A1125       4.476  16.614   6.289  1.00  0.00     0.232 C 
HETATM    5  N   MI1 A1125       3.163  16.329   6.572  1.00  0.00    -0.349 N 
HETATM    6  C   MI1 A1125       2.217  16.119   5.486  1.00  0.00     0.151 C 
HETATM    7  C   MI1 A1125       2.644  16.087   7.890  1.00  0.00     0.126 C 
HETATM    8  C   MI1 A1125       1.731  14.682   5.522  1.00  0.00     0.107 C 
HETATM    9  C   MI1 A1125       1.075  14.396   6.880  1.00  0.00     0.007 C 
HETATM   10  C   MI1 A1125       2.055  14.696   8.000  1.00  0.00     0.026 C 
HETATM   11  C   MI1 A1125      -0.199  15.205   7.125  1.00  0.00     0.012 C 
HETATM   12  O   MI1 A1125       4.880  16.739   5.146  1.00  0.00    -0.272 OA
BRANCH   8  13
HETATM   13  N   MI1 A1125       0.680  14.397   4.538  1.00  0.00    -0.364 N 
HETATM   14  C   MI1 A1125       0.151  13.066   4.383  1.00  0.00     0.152 C 
BRANCH  13  15
HETATM   15  C   MI1 A1125      -0.250  15.409   4.216  1.00  0.00     0.118 A 
HETATM   16  N   MI1 A1125       0.101  16.661   4.556  1.00  0.00    -0.338 N 
HETATM   17  C   MI1 A1125      -0.760  17.656   4.323  1.00  0.00     0.183 A 
ATOM     18  HN  MI1 A1125       1.008  16.848   4.984  1.00  0.00     0.168 HD
HETATM   19  N   MI1 A1125      -1.983  17.625   3.795  1.00  0.00    -0.338 N 
HETATM   20  C   MI1 A1125      -2.288  16.368   3.481  1.00  0.00     0.120 A 
ATOM     21  HN  MI1 A1125      -2.587  18.435   3.654  1.00  0.00     0.168 HD
HETATM   22  C   MI1 A1125      -1.515  15.236   3.644  1.00  0.00     0.053 A 
HETATM   23  N   MI1 A1125      -3.476  16.016   2.922  1.00  0.00    -0.351 N 
HETATM   24  C   MI1 A1125      -2.315  14.161   3.141  1.00  0.00     0.036 A 
HETATM   25  C   MI1 A1125      -3.505  14.676   2.696  1.00  0.00     0.091 A 
HETATM   26  H   MI1 A1125      -4.208  16.640   2.711  1.00  0.00     0.166 HD
ENDBRANCH  13  15
ENDBRANCH   8  13
ENDBRANCH   1   4
TORSDOF 3
ENDMDL
