MODEL 1
REMARK VINA RESULT:    -7.788      0.000      0.000
REMARK INTER + INTRA:         -12.773
REMARK INTER:                 -11.430
REMARK INTRA:                  -1.343
REMARK UNBOUND:                -1.343
REMARK  8 active torsions:
REMARK  status: ('A' for Active; 'I' for Inactive)
REMARK    1  A    between atoms: O02_2  and  N03_3 
REMARK       I    between atoms: N03_3  and  C04_5 
REMARK    2  A    between atoms: C04_5  and  C06_7 
REMARK    3  A    between atoms: N08_9  and  C31_34 
REMARK    4  A    between atoms: C11_13  and  N17_20 
REMARK    5  A    between atoms: N17_20  and  C18_21 
REMARK    6  A    between atoms: C21_24  and  C24_27 
REMARK    7  A    between atoms: C24_27  and  C25_28 
REMARK    8  A    between atoms: C25_28  and  N26_29 
ROOT
ATOM      1  C06 8C5 A 923       7.642  23.966   5.613  1.00  0.00     0.315 C 
ATOM      2  C07 8C5 A 923       6.733  24.836   5.086  1.00  0.00     0.147 C 
ATOM      3  N08 8C5 A 923       6.391  26.065   5.626  1.00  0.00    -0.360 N 
ATOM      4  C09 8C5 A 923       6.757  26.384   6.957  1.00  0.00     0.135 A 
ATOM      5  N10 8C5 A 923       6.368  27.555   7.548  1.00  0.00    -0.176 N 
ATOM      6  H10 8C5 A 923       5.803  28.241   7.048  1.00  0.00     0.186 HD
ATOM      7  C11 8C5 A 923       6.790  27.775   8.898  1.00  0.00     0.684 A 
ATOM      8  N12 8C5 A 923       7.564  26.905   9.582  1.00  0.00    -0.201 N 
ATOM      9  H12 8C5 A 923       7.864  27.078  10.542  1.00  0.00     0.183 HD
ATOM     10  C13 8C5 A 923       7.909  25.802   8.913  1.00  0.00     0.125 A 
ATOM     11  C14 8C5 A 923       7.557  25.448   7.616  1.00  0.00     0.071 A 
ATOM     12  C15 8C5 A 923       8.015  24.175   7.017  1.00  0.00     0.179 C 
ATOM     13  O16 8C5 A 923       8.710  23.386   7.690  1.00  0.00    -0.291 OA
ENDROOT
BRANCH   7  14
ATOM     14  N17 8C5 A 923       6.329  29.016   9.359  1.00  0.00    -0.192 N 
ATOM     15  H   8C5 A 923       6.994  29.514   9.888  1.00  0.00     0.184 HD
BRANCH  14  16
ATOM     16  C18 8C5 A 923       5.030  29.726   9.204  1.00  0.00     0.049 A 
ATOM     17  C19 8C5 A 923       4.373  29.881   7.983  1.00  0.00     0.030 A 
ATOM     18  C20 8C5 A 923       3.118  30.523   7.890  1.00  0.00     0.009 A 
ATOM     19  C21 8C5 A 923       2.443  31.069   8.973  1.00  0.00    -0.057 A 
ATOM     20  C22 8C5 A 923       3.103  30.893  10.199  1.00  0.00     0.009 A 
ATOM     21  C23 8C5 A 923       4.340  30.269  10.316  1.00  0.00     0.030 A 
BRANCH  19  22
ATOM     22  C24 8C5 A 923       1.010  31.598   8.874  1.00  0.00     0.066 C 
BRANCH  22  23
ATOM     23  C25 8C5 A 923       0.792  32.415   7.548  1.00  0.00     0.239 C 
BRANCH  23  24
ATOM     24  N26 8C5 A 923      -0.082  31.759   6.506  1.00  0.00    -0.071 N 
ATOM     25  C27 8C5 A 923      -1.441  31.409   6.995  1.00  0.00     0.235 C 
ATOM     26  C28 8C5 A 923      -2.192  30.911   5.746  1.00  0.00     0.029 C 
ATOM     27  C29 8C5 A 923      -1.465  31.547   4.576  1.00  0.00     0.029 C 
ATOM     28  C30 8C5 A 923      -0.345  32.401   5.191  1.00  0.00     0.235 C 
ATOM     29  H   8C5 A 923       0.554  30.978   6.339  1.00  0.00     0.279 HD
ENDBRANCH  23  24
ENDBRANCH  22  23
ENDBRANCH  19  22
ENDBRANCH  14  16
ENDBRANCH   7  14
BRANCH   3  30
ATOM     30  C31 8C5 A 923       5.764  27.160   4.720  1.00  0.00     0.086 C 
ATOM     31  C32 8C5 A 923       6.790  27.795   3.767  1.00  0.00     0.025 C 
ATOM     32  C33 8C5 A 923       6.189  28.957   2.967  1.00  0.00     0.002 C 
ATOM     33  C34 8C5 A 923       5.111  28.507   2.033  1.00  0.00     0.000 C 
ATOM     34  C35 8C5 A 923       4.065  27.773   2.840  1.00  0.00     0.002 C 
ATOM     35  C36 8C5 A 923       4.580  26.712   3.868  1.00  0.00     0.025 C 
ENDBRANCH   3  30
BRANCH   1  36
ATOM     36  C04 8C5 A 923       8.146  22.792   4.765  1.00  0.00     0.146 C 
ATOM     37  N03 8C5 A 923       9.059  21.875   5.362  1.00  0.00    -0.248 N 
ATOM     38  H03 8C5 A 923       9.486  22.128   6.253  1.00  0.00     0.196 HD
ATOM     39  O05 8C5 A 923       7.540  22.594   3.716  1.00  0.00    -0.289 OA
BRANCH  37  40
ATOM     40  O02 8C5 A 923       9.395  20.658   4.792  1.00  0.00    -0.283 OA
ATOM     41  C01 8C5 A 923      10.553  20.673   3.934  1.00  0.00     0.237 C 
ENDBRANCH  37  40
ENDBRANCH   1  36
TORSDOF 8
ENDMDL
MODEL 2
REMARK VINA RESULT:    -7.112      1.089      1.443
REMARK INTER + INTRA:         -11.781
REMARK INTER:                 -10.211
REMARK INTRA:                  -1.570
REMARK UNBOUND:                -1.343
REMARK  8 active torsions:
REMARK  status: ('A' for Active; 'I' for Inactive)
REMARK    1  A    between atoms: O02_2  and  N03_3 
REMARK       I    between atoms: N03_3  and  C04_5 
REMARK    2  A    between atoms: C04_5  and  C06_7 
REMARK    3  A    between atoms: N08_9  and  C31_34 
REMARK    4  A    between atoms: C11_13  and  N17_20 
REMARK    5  A    between atoms: N17_20  and  C18_21 
REMARK    6  A    between atoms: C21_24  and  C24_27 
REMARK    7  A    between atoms: C24_27  and  C25_28 
REMARK    8  A    between atoms: C25_28  and  N26_29 
ROOT
ATOM      1  C06 8C5 A 923       7.641  23.988   5.488  1.00  0.00     0.315 C 
ATOM      2  C07 8C5 A 923       6.701  24.856   5.014  1.00  0.00     0.147 C 
ATOM      3  N08 8C5 A 923       6.330  26.046   5.619  1.00  0.00    -0.360 N 
ATOM      4  C09 8C5 A 923       6.702  26.309   6.961  1.00  0.00     0.135 A 
ATOM      5  N10 8C5 A 923       6.287  27.437   7.613  1.00  0.00    -0.176 N 
ATOM      6  H10 8C5 A 923       5.696  28.130   7.155  1.00  0.00     0.186 HD
ATOM      7  C11 8C5 A 923       6.719  27.602   8.969  1.00  0.00     0.684 A 
ATOM      8  N12 8C5 A 923       7.526  26.722   9.600  1.00  0.00    -0.201 N 
ATOM      9  H12 8C5 A 923       7.832  26.856  10.564  1.00  0.00     0.183 HD
ATOM     10  C13 8C5 A 923       7.895  25.665   8.872  1.00  0.00     0.125 A 
ATOM     11  C14 8C5 A 923       7.538  25.365   7.563  1.00  0.00     0.071 A 
ATOM     12  C15 8C5 A 923       8.025  24.138   6.896  1.00  0.00     0.179 C 
ATOM     13  O16 8C5 A 923       8.750  23.337   7.521  1.00  0.00    -0.291 OA
ENDROOT
BRANCH   7  14
ATOM     14  N17 8C5 A 923       6.227  28.804   9.496  1.00  0.00    -0.192 N 
ATOM     15  H   8C5 A 923       6.559  29.005  10.401  1.00  0.00     0.184 HD
BRANCH  14  16
ATOM     16  C18 8C5 A 923       5.301  29.835   8.954  1.00  0.00     0.049 A 
ATOM     17  C19 8C5 A 923       5.305  30.257   7.623  1.00  0.00     0.030 A 
ATOM     18  C20 8C5 A 923       4.375  31.205   7.142  1.00  0.00     0.009 A 
ATOM     19  C21 8C5 A 923       3.408  31.814   7.929  1.00  0.00    -0.057 A 
ATOM     20  C22 8C5 A 923       3.401  31.372   9.261  1.00  0.00     0.009 A 
ATOM     21  C23 8C5 A 923       4.307  30.442   9.760  1.00  0.00     0.030 A 
BRANCH  19  22
ATOM     22  C24 8C5 A 923       2.304  32.701   7.346  1.00  0.00     0.066 C 
BRANCH  22  23
ATOM     23  C25 8C5 A 923       1.016  31.865   7.010  1.00  0.00     0.239 C 
BRANCH  23  24
ATOM     24  N26 8C5 A 923      -0.217  32.203   7.813  1.00  0.00    -0.071 N 
ATOM     25  C27 8C5 A 923      -0.811  31.038   8.521  1.00  0.00     0.235 C 
ATOM     26  C28 8C5 A 923      -1.937  31.635   9.385  1.00  0.00     0.029 C 
ATOM     27  C29 8C5 A 923      -1.544  33.088   9.584  1.00  0.00     0.029 C 
ATOM     28  C30 8C5 A 923      -0.205  33.266   8.853  1.00  0.00     0.235 C 
ATOM     29  H   8C5 A 923      -0.743  32.565   7.017  1.00  0.00     0.279 HD
ENDBRANCH  23  24
ENDBRANCH  22  23
ENDBRANCH  19  22
ENDBRANCH  14  16
ENDBRANCH   7  14
BRANCH   3  30
ATOM     30  C31 8C5 A 923       5.660  27.165   4.776  1.00  0.00     0.086 C 
ATOM     31  C32 8C5 A 923       6.656  27.879   3.847  1.00  0.00     0.025 C 
ATOM     32  C33 8C5 A 923       6.011  29.061   3.113  1.00  0.00     0.002 C 
ATOM     33  C34 8C5 A 923       4.937  28.626   2.167  1.00  0.00     0.000 C 
ATOM     34  C35 8C5 A 923       3.923  27.820   2.946  1.00  0.00     0.002 C 
ATOM     35  C36 8C5 A 923       4.481  26.725   3.914  1.00  0.00     0.025 C 
ENDBRANCH   3  30
BRANCH   1  36
ATOM     36  C04 8C5 A 923       8.169  22.873   4.576  1.00  0.00     0.146 C 
ATOM     37  N03 8C5 A 923       8.965  21.847   5.162  1.00  0.00    -0.248 N 
ATOM     38  H03 8C5 A 923       9.309  21.984   6.113  1.00  0.00     0.196 HD
ATOM     39  O05 8C5 A 923       7.666  22.818   3.458  1.00  0.00    -0.289 OA
BRANCH  37  40
ATOM     40  O02 8C5 A 923       9.294  20.673   4.505  1.00  0.00    -0.283 OA
ATOM     41  C01 8C5 A 923      10.592  20.656   3.878  1.00  0.00     0.237 C 
ENDBRANCH  37  40
ENDBRANCH   1  36
TORSDOF 8
ENDMDL
MODEL 3
REMARK VINA RESULT:    -6.587      1.335      1.710
REMARK INTER + INTRA:         -11.011
REMARK INTER:                  -9.653
REMARK INTRA:                  -1.358
REMARK UNBOUND:                -1.343
REMARK  8 active torsions:
REMARK  status: ('A' for Active; 'I' for Inactive)
REMARK    1  A    between atoms: O02_2  and  N03_3 
REMARK       I    between atoms: N03_3  and  C04_5 
REMARK    2  A    between atoms: C04_5  and  C06_7 
REMARK    3  A    between atoms: N08_9  and  C31_34 
REMARK    4  A    between atoms: C11_13  and  N17_20 
REMARK    5  A    between atoms: N17_20  and  C18_21 
REMARK    6  A    between atoms: C21_24  and  C24_27 
REMARK    7  A    between atoms: C24_27  and  C25_28 
REMARK    8  A    between atoms: C25_28  and  N26_29 
ROOT
ATOM      1  C06 8C5 A 923       7.686  24.031   6.160  1.00  0.00     0.315 C 
ATOM      2  C07 8C5 A 923       6.837  24.762   5.383  1.00  0.00     0.147 C 
ATOM      3  N08 8C5 A 923       6.392  26.043   5.666  1.00  0.00    -0.360 N 
ATOM      4  C09 8C5 A 923       6.561  26.585   6.965  1.00  0.00     0.135 A 
ATOM      5  N10 8C5 A 923       6.065  27.814   7.300  1.00  0.00    -0.176 N 
ATOM      6  H10 8C5 A 923       5.556  28.385   6.625  1.00  0.00     0.186 HD
ATOM      7  C11 8C5 A 923       6.290  28.264   8.641  1.00  0.00     0.684 A 
ATOM      8  N12 8C5 A 923       6.986  27.551   9.553  1.00  0.00    -0.201 N 
ATOM      9  H12 8C5 A 923       7.145  27.887  10.503  1.00  0.00     0.183 HD
ATOM     10  C13 8C5 A 923       7.448  26.374   9.123  1.00  0.00     0.125 A 
ATOM     11  C14 8C5 A 923       7.288  25.803   7.867  1.00  0.00     0.071 A 
ATOM     12  C15 8C5 A 923       7.857  24.476   7.548  1.00  0.00     0.179 C 
ATOM     13  O16 8C5 A 923       8.472  23.837   8.426  1.00  0.00    -0.291 OA
ENDROOT
BRANCH   7  14
ATOM     14  N17 8C5 A 923       5.738  29.538   8.829  1.00  0.00    -0.192 N 
ATOM     15  H   8C5 A 923       5.877  29.901   9.734  1.00  0.00     0.184 HD
BRANCH  14  16
ATOM     16  C18 8C5 A 923       4.983  30.450   7.927  1.00  0.00     0.049 A 
ATOM     17  C19 8C5 A 923       5.437  30.845   6.668  1.00  0.00     0.030 A 
ATOM     18  C20 8C5 A 923       4.665  31.675   5.825  1.00  0.00     0.009 A 
ATOM     19  C21 8C5 A 923       3.420  32.185   6.167  1.00  0.00    -0.057 A 
ATOM     20  C22 8C5 A 923       2.964  31.769   7.427  1.00  0.00     0.009 A 
ATOM     21  C23 8C5 A 923       3.707  30.956   8.276  1.00  0.00     0.030 A 
BRANCH  19  22
ATOM     22  C24 8C5 A 923       2.530  32.932   5.171  1.00  0.00     0.066 C 
BRANCH  22  23
ATOM     23  C25 8C5 A 923       1.980  31.967   4.058  1.00  0.00     0.239 C 
BRANCH  23  24
ATOM     24  N26 8C5 A 923       0.526  31.580   4.181  1.00  0.00    -0.071 N 
ATOM     25  C27 8C5 A 923      -0.196  32.294   5.267  1.00  0.00     0.235 C 
ATOM     26  C28 8C5 A 923      -1.668  31.871   5.105  1.00  0.00     0.029 C 
ATOM     27  C29 8C5 A 923      -1.795  31.456   3.651  1.00  0.00     0.029 C 
ATOM     28  C30 8C5 A 923      -0.408  31.676   3.028  1.00  0.00     0.235 C 
ATOM     29  H   8C5 A 923       0.712  30.590   4.337  1.00  0.00     0.279 HD
ENDBRANCH  23  24
ENDBRANCH  22  23
ENDBRANCH  19  22
ENDBRANCH  14  16
ENDBRANCH   7  14
BRANCH   3  30
ATOM     30  C31 8C5 A 923       5.867  26.950   4.520  1.00  0.00     0.086 C 
ATOM     31  C32 8C5 A 923       6.939  27.922   4.000  1.00  0.00     0.025 C 
ATOM     32  C33 8C5 A 923       6.376  28.895   2.958  1.00  0.00     0.002 C 
ATOM     33  C34 8C5 A 923       5.935  28.198   1.709  1.00  0.00     0.000 C 
ATOM     34  C35 8C5 A 923       4.932  27.135   2.094  1.00  0.00     0.002 C 
ATOM     35  C36 8C5 A 923       5.301  26.218   3.307  1.00  0.00     0.025 C 
ENDBRANCH   3  30
BRANCH   1  36
ATOM     36  C04 8C5 A 923       8.334  22.763   5.588  1.00  0.00     0.146 C 
ATOM     37  N03 8C5 A 923       9.751  22.735   5.453  1.00  0.00    -0.248 N 
ATOM     38  H03 8C5 A 923      10.266  23.609   5.562  1.00  0.00     0.196 HD
ATOM     39  O05 8C5 A 923       7.603  21.779   5.516  1.00  0.00    -0.289 OA
BRANCH  37  40
ATOM     40  O02 8C5 A 923      10.466  21.579   5.182  1.00  0.00    -0.283 OA
ATOM     41  C01 8C5 A 923      10.583  21.235   3.787  1.00  0.00     0.237 C 
ENDBRANCH  37  40
ENDBRANCH   1  36
TORSDOF 8
ENDMDL
MODEL 4
REMARK VINA RESULT:    -5.621      1.673      2.395
REMARK INTER + INTRA:          -9.593
REMARK INTER:                  -7.676
REMARK INTRA:                  -1.917
REMARK UNBOUND:                -1.343
REMARK  8 active torsions:
REMARK  status: ('A' for Active; 'I' for Inactive)
REMARK    1  A    between atoms: O02_2  and  N03_3 
REMARK       I    between atoms: N03_3  and  C04_5 
REMARK    2  A    between atoms: C04_5  and  C06_7 
REMARK    3  A    between atoms: N08_9  and  C31_34 
REMARK    4  A    between atoms: C11_13  and  N17_20 
REMARK    5  A    between atoms: N17_20  and  C18_21 
REMARK    6  A    between atoms: C21_24  and  C24_27 
REMARK    7  A    between atoms: C24_27  and  C25_28 
REMARK    8  A    between atoms: C25_28  and  N26_29 
ROOT
ATOM      1  C06 8C5 A 923       6.932  25.151   5.497  1.00  0.00     0.315 C 
ATOM      2  C07 8C5 A 923       6.151  25.933   4.697  1.00  0.00     0.147 C 
ATOM      3  N08 8C5 A 923       5.730  27.218   4.996  1.00  0.00    -0.360 N 
ATOM      4  C09 8C5 A 923       5.841  27.714   6.320  1.00  0.00     0.135 A 
ATOM      5  N10 8C5 A 923       5.363  28.948   6.667  1.00  0.00    -0.176 N 
ATOM      6  H10 8C5 A 923       4.912  29.555   5.983  1.00  0.00     0.186 HD
ATOM      7  C11 8C5 A 923       5.524  29.348   8.032  1.00  0.00     0.684 A 
ATOM      8  N12 8C5 A 923       6.143  28.585   8.959  1.00  0.00    -0.201 N 
ATOM      9  H12 8C5 A 923       6.257  28.886   9.926  1.00  0.00     0.183 HD
ATOM     10  C13 8C5 A 923       6.593  27.408   8.517  1.00  0.00     0.125 A 
ATOM     11  C14 8C5 A 923       6.489  26.882   7.236  1.00  0.00     0.071 A 
ATOM     12  C15 8C5 A 923       7.035  25.547   6.907  1.00  0.00     0.179 C 
ATOM     13  O16 8C5 A 923       7.579  24.862   7.797  1.00  0.00    -0.291 OA
ENDROOT
BRANCH   7  14
ATOM     14  N17 8C5 A 923       5.001  30.633   8.230  1.00  0.00    -0.192 N 
ATOM     15  H   8C5 A 923       5.534  31.188   8.845  1.00  0.00     0.184 HD
BRANCH  14  16
ATOM     16  C18 8C5 A 923       3.795  31.322   7.692  1.00  0.00     0.049 A 
ATOM     17  C19 8C5 A 923       3.803  32.107   6.538  1.00  0.00     0.030 A 
ATOM     18  C20 8C5 A 923       2.624  32.704   6.038  1.00  0.00     0.009 A 
ATOM     19  C21 8C5 A 923       1.380  32.591   6.643  1.00  0.00    -0.057 A 
ATOM     20  C22 8C5 A 923       1.379  31.786   7.792  1.00  0.00     0.009 A 
ATOM     21  C23 8C5 A 923       2.526  31.191   8.306  1.00  0.00     0.030 A 
BRANCH  19  22
ATOM     22  C24 8C5 A 923       0.092  33.097   5.986  1.00  0.00     0.066 C 
BRANCH  22  23
ATOM     23  C25 8C5 A 923      -0.660  31.940   5.233  1.00  0.00     0.239 C 
BRANCH  23  24
ATOM     24  N26 8C5 A 923      -0.154  31.619   3.846  1.00  0.00    -0.071 N 
ATOM     25  C27 8C5 A 923      -1.150  30.922   2.990  1.00  0.00     0.235 C 
ATOM     26  C28 8C5 A 923      -0.487  30.842   1.602  1.00  0.00     0.029 C 
ATOM     27  C29 8C5 A 923       0.525  31.974   1.589  1.00  0.00     0.029 C 
ATOM     28  C30 8C5 A 923       0.391  32.673   2.950  1.00  0.00     0.235 C 
ATOM     29  H   8C5 A 923       0.636  31.060   4.169  1.00  0.00     0.279 HD
ENDBRANCH  23  24
ENDBRANCH  22  23
ENDBRANCH  19  22
ENDBRANCH  14  16
ENDBRANCH   7  14
BRANCH   3  30
ATOM     30  C31 8C5 A 923       5.300  28.177   3.853  1.00  0.00     0.086 C 
ATOM     31  C32 8C5 A 923       5.043  27.436   2.529  1.00  0.00     0.025 C 
ATOM     32  C33 8C5 A 923       4.741  28.404   1.379  1.00  0.00     0.002 C 
ATOM     33  C34 8C5 A 923       3.464  29.154   1.587  1.00  0.00     0.000 C 
ATOM     34  C35 8C5 A 923       3.547  29.864   2.919  1.00  0.00     0.002 C 
ATOM     35  C36 8C5 A 923       4.068  29.029   4.135  1.00  0.00     0.025 C 
ENDBRANCH   3  30
BRANCH   1  36
ATOM     36  C04 8C5 A 923       7.573  23.881   4.922  1.00  0.00     0.146 C 
ATOM     37  N03 8C5 A 923       8.438  23.125   5.763  1.00  0.00    -0.248 N 
ATOM     38  H03 8C5 A 923       8.748  23.543   6.641  1.00  0.00     0.196 HD
ATOM     39  O05 8C5 A 923       7.102  23.482   3.861  1.00  0.00    -0.289 OA
BRANCH  37  40
ATOM     40  O02 8C5 A 923       8.880  21.850   5.449  1.00  0.00    -0.283 OA
ATOM     41  C01 8C5 A 923       9.930  21.783   4.464  1.00  0.00     0.237 C 
ENDBRANCH  37  40
ENDBRANCH   1  36
TORSDOF 8
ENDMDL
MODEL 5
REMARK VINA RESULT:    -5.484      2.375      3.417
REMARK INTER + INTRA:          -9.392
REMARK INTER:                  -7.763
REMARK INTRA:                  -1.629
REMARK UNBOUND:                -1.343
REMARK  8 active torsions:
REMARK  status: ('A' for Active; 'I' for Inactive)
REMARK    1  A    between atoms: O02_2  and  N03_3 
REMARK       I    between atoms: N03_3  and  C04_5 
REMARK    2  A    between atoms: C04_5  and  C06_7 
REMARK    3  A    between atoms: N08_9  and  C31_34 
REMARK    4  A    between atoms: C11_13  and  N17_20 
REMARK    5  A    between atoms: N17_20  and  C18_21 
REMARK    6  A    between atoms: C21_24  and  C24_27 
REMARK    7  A    between atoms: C24_27  and  C25_28 
REMARK    8  A    between atoms: C25_28  and  N26_29 
ROOT
ATOM      1  C06 8C5 A 923       7.404  24.821   6.494  1.00  0.00     0.315 C 
ATOM      2  C07 8C5 A 923       6.604  25.210   5.460  1.00  0.00     0.147 C 
ATOM      3  N08 8C5 A 923       6.035  26.465   5.314  1.00  0.00    -0.360 N 
ATOM      4  C09 8C5 A 923       6.006  27.365   6.408  1.00  0.00     0.135 A 
ATOM      5  N10 8C5 A 923       5.384  28.580   6.322  1.00  0.00    -0.176 N 
ATOM      6  H10 8C5 A 923       4.920  28.881   5.465  1.00  0.00     0.186 HD
ATOM      7  C11 8C5 A 923       5.412  29.410   7.488  1.00  0.00     0.684 A 
ATOM      8  N12 8C5 A 923       6.042  29.060   8.631  1.00  0.00    -0.201 N 
ATOM      9  H12 8C5 A 923       6.060  29.665   9.452  1.00  0.00     0.183 HD
ATOM     10  C13 8C5 A 923       6.638  27.865   8.608  1.00  0.00     0.125 A 
ATOM     11  C14 8C5 A 923       6.673  26.950   7.564  1.00  0.00     0.071 A 
ATOM     12  C15 8C5 A 923       7.372  25.654   7.702  1.00  0.00     0.179 C 
ATOM     13  O16 8C5 A 923       7.922  25.357   8.782  1.00  0.00    -0.291 OA
ENDROOT
BRANCH   7  14
ATOM     14  N17 8C5 A 923       4.749  30.620   7.243  1.00  0.00    -0.192 N 
ATOM     15  H   8C5 A 923       4.488  31.103   8.062  1.00  0.00     0.184 HD
BRANCH  14  16
ATOM     16  C18 8C5 A 923       4.362  31.318   5.987  1.00  0.00     0.049 A 
ATOM     17  C19 8C5 A 923       5.171  31.373   4.850  1.00  0.00     0.030 A 
ATOM     18  C20 8C5 A 923       4.743  32.007   3.663  1.00  0.00     0.009 A 
ATOM     19  C21 8C5 A 923       3.517  32.643   3.521  1.00  0.00    -0.057 A 
ATOM     20  C22 8C5 A 923       2.704  32.569   4.662  1.00  0.00     0.009 A 
ATOM     21  C23 8C5 A 923       3.104  31.954   5.844  1.00  0.00     0.030 A 
BRANCH  19  22
ATOM     22  C24 8C5 A 923       3.007  33.165   2.175  1.00  0.00     0.066 C 
BRANCH  22  23
ATOM     23  C25 8C5 A 923       2.210  32.057   1.395  1.00  0.00     0.239 C 
BRANCH  23  24
ATOM     24  N26 8C5 A 923       0.708  32.215   1.378  1.00  0.00    -0.071 N 
ATOM     25  C27 8C5 A 923      -0.024  31.073   1.989  1.00  0.00     0.235 C 
ATOM     26  C28 8C5 A 923      -1.498  31.516   2.006  1.00  0.00     0.029 C 
ATOM     27  C29 8C5 A 923      -1.450  33.032   1.977  1.00  0.00     0.029 C 
ATOM     28  C30 8C5 A 923       0.041  33.405   1.969  1.00  0.00     0.235 C 
ATOM     29  H   8C5 A 923       0.641  32.304   0.364  1.00  0.00     0.279 HD
ENDBRANCH  23  24
ENDBRANCH  22  23
ENDBRANCH  19  22
ENDBRANCH  14  16
ENDBRANCH   7  14
BRANCH   3  30
ATOM     30  C31 8C5 A 923       5.588  26.951   3.909  1.00  0.00     0.086 C 
ATOM     31  C32 8C5 A 923       4.143  27.479   3.901  1.00  0.00     0.025 C 
ATOM     32  C33 8C5 A 923       3.671  27.840   2.487  1.00  0.00     0.002 C 
ATOM     33  C34 8C5 A 923       4.439  28.984   1.906  1.00  0.00     0.000 C 
ATOM     34  C35 8C5 A 923       5.908  28.631   1.941  1.00  0.00     0.002 C 
ATOM     35  C36 8C5 A 923       6.461  28.030   3.276  1.00  0.00     0.025 C 
ENDBRANCH   3  30
BRANCH   1  36
ATOM     36  C04 8C5 A 923       8.207  23.518   6.381  1.00  0.00     0.146 C 
ATOM     37  N03 8C5 A 923       7.775  22.542   5.438  1.00  0.00    -0.248 N 
ATOM     38  H03 8C5 A 923       6.856  22.656   5.010  1.00  0.00     0.196 HD
ATOM     39  O05 8C5 A 923       9.301  23.518   6.939  1.00  0.00    -0.289 OA
BRANCH  37  40
ATOM     40  O02 8C5 A 923       8.541  21.447   5.073  1.00  0.00    -0.283 OA
ATOM     41  C01 8C5 A 923       9.766  21.751   4.378  1.00  0.00     0.237 C 
ENDBRANCH  37  40
ENDBRANCH   1  36
TORSDOF 8
ENDMDL
MODEL 6
REMARK VINA RESULT:    -5.452      2.202      4.994
REMARK INTER + INTRA:          -9.345
REMARK INTER:                  -7.320
REMARK INTRA:                  -2.024
REMARK UNBOUND:                -1.343
REMARK  8 active torsions:
REMARK  status: ('A' for Active; 'I' for Inactive)
REMARK    1  A    between atoms: O02_2  and  N03_3 
REMARK       I    between atoms: N03_3  and  C04_5 
REMARK    2  A    between atoms: C04_5  and  C06_7 
REMARK    3  A    between atoms: N08_9  and  C31_34 
REMARK    4  A    between atoms: C11_13  and  N17_20 
REMARK    5  A    between atoms: N17_20  and  C18_21 
REMARK    6  A    between atoms: C21_24  and  C24_27 
REMARK    7  A    between atoms: C24_27  and  C25_28 
REMARK    8  A    between atoms: C25_28  and  N26_29 
ROOT
ATOM      1  C06 8C5 A 923       6.647  25.924   5.595  1.00  0.00     0.315 C 
ATOM      2  C07 8C5 A 923       6.614  27.093   6.298  1.00  0.00     0.147 C 
ATOM      3  N08 8C5 A 923       5.929  28.236   5.922  1.00  0.00    -0.360 N 
ATOM      4  C09 8C5 A 923       5.439  28.370   4.599  1.00  0.00     0.135 A 
ATOM      5  N10 8C5 A 923       4.828  29.517   4.172  1.00  0.00    -0.176 N 
ATOM      6  H10 8C5 A 923       4.701  30.316   4.794  1.00  0.00     0.186 HD
ATOM      7  C11 8C5 A 923       4.374  29.547   2.814  1.00  0.00     0.684 A 
ATOM      8  N12 8C5 A 923       4.495  28.499   1.971  1.00  0.00    -0.201 N 
ATOM      9  H12 8C5 A 923       4.160  28.531   1.008  1.00  0.00     0.183 HD
ATOM     10  C13 8C5 A 923       5.086  27.418   2.487  1.00  0.00     0.125 A 
ATOM     11  C14 8C5 A 923       5.593  27.255   3.771  1.00  0.00     0.071 A 
ATOM     12  C15 8C5 A 923       6.233  25.989   4.188  1.00  0.00     0.179 C 
ATOM     13  O16 8C5 A 923       6.348  25.052   3.372  1.00  0.00    -0.291 OA
ENDROOT
BRANCH   7  14
ATOM     14  N17 8C5 A 923       3.760  30.774   2.530  1.00  0.00    -0.192 N 
ATOM     15  H   8C5 A 923       4.130  31.229   1.739  1.00  0.00     0.184 HD
BRANCH  14  16
ATOM     16  C18 8C5 A 923       2.658  31.524   3.192  1.00  0.00     0.049 A 
ATOM     17  C19 8C5 A 923       2.862  32.490   4.179  1.00  0.00     0.030 A 
ATOM     18  C20 8C5 A 923       1.788  33.211   4.747  1.00  0.00     0.009 A 
ATOM     19  C21 8C5 A 923       0.456  33.018   4.406  1.00  0.00    -0.057 A 
ATOM     20  C22 8C5 A 923       0.262  32.057   3.402  1.00  0.00     0.009 A 
ATOM     21  C23 8C5 A 923       1.302  31.331   2.830  1.00  0.00     0.030 A 
BRANCH  19  22
ATOM     22  C24 8C5 A 923      -0.666  33.932   4.904  1.00  0.00     0.066 C 
BRANCH  22  23
ATOM     23  C25 8C5 A 923      -1.513  33.236   6.032  1.00  0.00     0.239 C 
BRANCH  23  24
ATOM     24  N26 8C5 A 923      -0.729  32.439   7.047  1.00  0.00    -0.071 N 
ATOM     25  C27 8C5 A 923      -0.278  33.236   8.219  1.00  0.00     0.235 C 
ATOM     26  C28 8C5 A 923       0.347  32.206   9.178  1.00  0.00     0.029 C 
ATOM     27  C29 8C5 A 923      -0.297  30.884   8.802  1.00  0.00     0.029 C 
ATOM     28  C30 8C5 A 923      -1.279  31.203   7.664  1.00  0.00     0.235 C 
ATOM     29  H   8C5 A 923      -0.003  32.151   6.390  1.00  0.00     0.279 HD
ENDBRANCH  23  24
ENDBRANCH  22  23
ENDBRANCH  19  22
ENDBRANCH  14  16
ENDBRANCH   7  14
BRANCH   3  30
ATOM     30  C31 8C5 A 923       5.544  29.294   6.992  1.00  0.00     0.086 C 
ATOM     31  C32 8C5 A 923       4.109  29.818   6.812  1.00  0.00     0.025 C 
ATOM     32  C33 8C5 A 923       3.784  30.949   7.795  1.00  0.00     0.002 C 
ATOM     33  C34 8C5 A 923       3.785  30.484   9.217  1.00  0.00     0.000 C 
ATOM     34  C35 8C5 A 923       5.127  29.851   9.504  1.00  0.00     0.002 C 
ATOM     35  C36 8C5 A 923       5.676  28.841   8.443  1.00  0.00     0.025 C 
ENDBRANCH   3  30
BRANCH   1  36
ATOM     36  C04 8C5 A 923       7.184  24.653   6.265  1.00  0.00     0.146 C 
ATOM     37  N03 8C5 A 923       7.201  23.448   5.504  1.00  0.00    -0.248 N 
ATOM     38  H03 8C5 A 923       6.692  23.426   4.621  1.00  0.00     0.196 HD
ATOM     39  O05 8C5 A 923       7.783  24.822   7.323  1.00  0.00    -0.289 OA
BRANCH  37  40
ATOM     40  O02 8C5 A 923       7.875  22.306   5.905  1.00  0.00    -0.283 OA
ATOM     41  C01 8C5 A 923       8.999  21.929   5.085  1.00  0.00     0.237 C 
ENDBRANCH  37  40
ENDBRANCH   1  36
TORSDOF 8
ENDMDL
MODEL 7
REMARK VINA RESULT:    -5.237      4.332      9.451
REMARK INTER + INTRA:          -9.029
REMARK INTER:                  -8.259
REMARK INTRA:                  -0.770
REMARK UNBOUND:                -1.343
REMARK  8 active torsions:
REMARK  status: ('A' for Active; 'I' for Inactive)
REMARK    1  A    between atoms: O02_2  and  N03_3 
REMARK       I    between atoms: N03_3  and  C04_5 
REMARK    2  A    between atoms: C04_5  and  C06_7 
REMARK    3  A    between atoms: N08_9  and  C31_34 
REMARK    4  A    between atoms: C11_13  and  N17_20 
REMARK    5  A    between atoms: N17_20  and  C18_21 
REMARK    6  A    between atoms: C21_24  and  C24_27 
REMARK    7  A    between atoms: C24_27  and  C25_28 
REMARK    8  A    between atoms: C25_28  and  N26_29 
ROOT
ATOM      1  C06 8C5 A 923       2.520  32.414   4.951  1.00  0.00     0.315 C 
ATOM      2  C07 8C5 A 923       3.475  31.632   4.370  1.00  0.00     0.147 C 
ATOM      3  N08 8C5 A 923       4.228  30.668   5.020  1.00  0.00    -0.360 N 
ATOM      4  C09 8C5 A 923       4.263  30.627   6.436  1.00  0.00     0.135 A 
ATOM      5  N10 8C5 A 923       5.056  29.739   7.110  1.00  0.00    -0.176 N 
ATOM      6  H10 8C5 A 923       5.648  29.073   6.614  1.00  0.00     0.186 HD
ATOM      7  C11 8C5 A 923       5.018  29.787   8.540  1.00  0.00     0.684 A 
ATOM      8  N12 8C5 A 923       4.224  30.633   9.231  1.00  0.00    -0.201 N 
ATOM      9  H12 8C5 A 923       4.201  30.651  10.251  1.00  0.00     0.183 HD
ATOM     10  C13 8C5 A 923       3.471  31.445   8.484  1.00  0.00     0.125 A 
ATOM     11  C14 8C5 A 923       3.422  31.526   7.098  1.00  0.00     0.071 A 
ATOM     12  C15 8C5 A 923       2.536  32.495   6.416  1.00  0.00     0.179 C 
ATOM     13  O16 8C5 A 923       1.835  33.277   7.090  1.00  0.00    -0.291 OA
ENDROOT
BRANCH   7  14
ATOM     14  N17 8C5 A 923       5.867  28.815   9.085  1.00  0.00    -0.192 N 
ATOM     15  H   8C5 A 923       6.120  28.988  10.021  1.00  0.00     0.184 HD
BRANCH  14  16
ATOM     16  C18 8C5 A 923       6.462  27.571   8.524  1.00  0.00     0.049 A 
ATOM     17  C19 8C5 A 923       6.148  27.064   7.262  1.00  0.00     0.030 A 
ATOM     18  C20 8C5 A 923       6.773  25.904   6.750  1.00  0.00     0.009 A 
ATOM     19  C21 8C5 A 923       7.718  25.161   7.444  1.00  0.00    -0.057 A 
ATOM     20  C22 8C5 A 923       8.040  25.688   8.704  1.00  0.00     0.009 A 
ATOM     21  C23 8C5 A 923       7.436  26.825   9.231  1.00  0.00     0.030 A 
BRANCH  19  22
ATOM     22  C24 8C5 A 923       8.506  24.017   6.800  1.00  0.00     0.066 C 
BRANCH  22  23
ATOM     23  C25 8C5 A 923       7.613  23.200   5.797  1.00  0.00     0.239 C 
BRANCH  23  24
ATOM     24  N26 8C5 A 923       8.334  22.169   4.962  1.00  0.00    -0.071 N 
ATOM     25  C27 8C5 A 923       9.812  22.330   4.953  1.00  0.00     0.235 C 
ATOM     26  C28 8C5 A 923      10.337  21.101   4.188  1.00  0.00     0.029 C 
ATOM     27  C29 8C5 A 923       9.244  20.058   4.332  1.00  0.00     0.029 C 
ATOM     28  C30 8C5 A 923       8.149  20.712   5.189  1.00  0.00     0.235 C 
ATOM     29  H   8C5 A 923       7.849  22.404   4.096  1.00  0.00     0.279 HD
ENDBRANCH  23  24
ENDBRANCH  22  23
ENDBRANCH  19  22
ENDBRANCH  14  16
ENDBRANCH   7  14
BRANCH   3  30
ATOM     30  C31 8C5 A 923       4.890  29.525   4.204  1.00  0.00     0.086 C 
ATOM     31  C32 8C5 A 923       3.895  28.816   3.269  1.00  0.00     0.025 C 
ATOM     32  C33 8C5 A 923       4.530  27.612   2.563  1.00  0.00     0.002 C 
ATOM     33  C34 8C5 A 923       5.626  28.014   1.628  1.00  0.00     0.000 C 
ATOM     34  C35 8C5 A 923       6.643  28.812   2.411  1.00  0.00     0.002 C 
ATOM     35  C36 8C5 A 923       6.090  29.931   3.355  1.00  0.00     0.025 C 
ENDBRANCH   3  30
BRANCH   1  36
ATOM     36  C04 8C5 A 923       1.558  33.218   4.066  1.00  0.00     0.146 C 
ATOM     37  N03 8C5 A 923       1.907  33.411   2.699  1.00  0.00    -0.248 N 
ATOM     38  H03 8C5 A 923       2.854  33.176   2.402  1.00  0.00     0.196 HD
ATOM     39  O05 8C5 A 923       0.447  33.428   4.543  1.00  0.00    -0.289 OA
BRANCH  37  40
ATOM     40  O02 8C5 A 923       1.023  33.903   1.752  1.00  0.00    -0.283 OA
ATOM     41  C01 8C5 A 923      -0.045  33.011   1.378  1.00  0.00     0.237 C 
ENDBRANCH  37  40
ENDBRANCH   1  36
TORSDOF 8
ENDMDL
MODEL 8
REMARK VINA RESULT:    -5.229      4.175      9.505
REMARK INTER + INTRA:          -9.017
REMARK INTER:                  -8.069
REMARK INTRA:                  -0.948
REMARK UNBOUND:                -1.343
REMARK  8 active torsions:
REMARK  status: ('A' for Active; 'I' for Inactive)
REMARK    1  A    between atoms: O02_2  and  N03_3 
REMARK       I    between atoms: N03_3  and  C04_5 
REMARK    2  A    between atoms: C04_5  and  C06_7 
REMARK    3  A    between atoms: N08_9  and  C31_34 
REMARK    4  A    between atoms: C11_13  and  N17_20 
REMARK    5  A    between atoms: N17_20  and  C18_21 
REMARK    6  A    between atoms: C21_24  and  C24_27 
REMARK    7  A    between atoms: C24_27  and  C25_28 
REMARK    8  A    between atoms: C25_28  and  N26_29 
ROOT
ATOM      1  C06 8C5 A 923       1.497  32.319   5.948  1.00  0.00     0.315 C 
ATOM      2  C07 8C5 A 923       2.533  31.907   5.161  1.00  0.00     0.147 C 
ATOM      3  N08 8C5 A 923       3.570  31.084   5.566  1.00  0.00    -0.360 N 
ATOM      4  C09 8C5 A 923       3.792  30.844   6.945  1.00  0.00     0.135 A 
ATOM      5  N10 8C5 A 923       4.854  30.102   7.383  1.00  0.00    -0.176 N 
ATOM      6  H10 8C5 A 923       5.522  29.692   6.731  1.00  0.00     0.186 HD
ATOM      7  C11 8C5 A 923       4.985  29.924   8.798  1.00  0.00     0.684 A 
ATOM      8  N12 8C5 A 923       4.103  30.424   9.691  1.00  0.00    -0.201 N 
ATOM      9  H12 8C5 A 923       4.205  30.283  10.696  1.00  0.00     0.183 HD
ATOM     10  C13 8C5 A 923       3.090  31.115   9.164  1.00  0.00     0.125 A 
ATOM     11  C14 8C5 A 923       2.849  31.386   7.822  1.00  0.00     0.071 A 
ATOM     12  C15 8C5 A 923       1.677  32.183   7.398  1.00  0.00     0.179 C 
ATOM     13  O16 8C5 A 923       0.899  32.647   8.255  1.00  0.00    -0.291 OA
ENDROOT
BRANCH   7  14
ATOM     14  N17 8C5 A 923       6.105  29.135   9.091  1.00  0.00    -0.192 N 
ATOM     15  H   8C5 A 923       6.697  29.524   9.775  1.00  0.00     0.184 HD
BRANCH  14  16
ATOM     16  C18 8C5 A 923       6.574  27.822   8.568  1.00  0.00     0.049 A 
ATOM     17  C19 8C5 A 923       6.232  27.323   7.310  1.00  0.00     0.030 A 
ATOM     18  C20 8C5 A 923       6.739  26.092   6.836  1.00  0.00     0.009 A 
ATOM     19  C21 8C5 A 923       7.587  25.269   7.565  1.00  0.00    -0.057 A 
ATOM     20  C22 8C5 A 923       7.939  25.788   8.820  1.00  0.00     0.009 A 
ATOM     21  C23 8C5 A 923       7.450  26.994   9.311  1.00  0.00     0.030 A 
BRANCH  19  22
ATOM     22  C24 8C5 A 923       8.260  24.034   6.961  1.00  0.00     0.066 C 
BRANCH  22  23
ATOM     23  C25 8C5 A 923       7.576  23.611   5.611  1.00  0.00     0.239 C 
BRANCH  23  24
ATOM     24  N26 8C5 A 923       8.085  22.333   4.986  1.00  0.00    -0.071 N 
ATOM     25  C27 8C5 A 923       9.565  22.273   4.864  1.00  0.00     0.235 C 
ATOM     26  C28 8C5 A 923       9.860  20.847   4.361  1.00  0.00     0.029 C 
ATOM     27  C29 8C5 A 923       8.656  20.028   4.788  1.00  0.00     0.029 C 
ATOM     28  C30 8C5 A 923       7.731  20.999   5.537  1.00  0.00     0.235 C 
ATOM     29  H   8C5 A 923       7.564  22.448   4.116  1.00  0.00     0.279 HD
ENDBRANCH  23  24
ENDBRANCH  22  23
ENDBRANCH  19  22
ENDBRANCH  14  16
ENDBRANCH   7  14
BRANCH   3  30
ATOM     30  C31 8C5 A 923       4.381  30.286   4.509  1.00  0.00     0.086 C 
ATOM     31  C32 8C5 A 923       5.885  30.608   4.554  1.00  0.00     0.025 C 
ATOM     32  C33 8C5 A 923       6.655  29.910   3.427  1.00  0.00     0.002 C 
ATOM     33  C34 8C5 A 923       6.637  28.420   3.564  1.00  0.00     0.000 C 
ATOM     34  C35 8C5 A 923       5.195  27.971   3.628  1.00  0.00     0.002 C 
ATOM     35  C36 8C5 A 923       4.247  28.768   4.584  1.00  0.00     0.025 C 
ENDBRANCH   3  30
BRANCH   1  36
ATOM     36  C04 8C5 A 923       0.267  32.970   5.301  1.00  0.00     0.146 C 
ATOM     37  N03 8C5 A 923      -0.289  32.353   4.144  1.00  0.00    -0.248 N 
ATOM     38  H03 8C5 A 923       0.248  31.621   3.680  1.00  0.00     0.196 HD
ATOM     39  O05 8C5 A 923      -0.289  33.835   5.971  1.00  0.00    -0.289 OA
BRANCH  37  40
ATOM     40  O02 8C5 A 923      -1.523  32.699   3.618  1.00  0.00    -0.283 OA
ATOM     41  C01 8C5 A 923      -1.999  31.858   2.548  1.00  0.00     0.237 C 
ENDBRANCH  37  40
ENDBRANCH   1  36
TORSDOF 8
ENDMDL
MODEL 9
REMARK VINA RESULT:    -5.017      4.444      9.469
REMARK INTER + INTRA:          -8.707
REMARK INTER:                  -7.607
REMARK INTRA:                  -1.101
REMARK UNBOUND:                -1.343
REMARK  8 active torsions:
REMARK  status: ('A' for Active; 'I' for Inactive)
REMARK    1  A    between atoms: O02_2  and  N03_3 
REMARK       I    between atoms: N03_3  and  C04_5 
REMARK    2  A    between atoms: C04_5  and  C06_7 
REMARK    3  A    between atoms: N08_9  and  C31_34 
REMARK    4  A    between atoms: C11_13  and  N17_20 
REMARK    5  A    between atoms: N17_20  and  C18_21 
REMARK    6  A    between atoms: C21_24  and  C24_27 
REMARK    7  A    between atoms: C24_27  and  C25_28 
REMARK    8  A    between atoms: C25_28  and  N26_29 
ROOT
ATOM      1  C06 8C5 A 923       1.860  32.298   3.832  1.00  0.00     0.315 C 
ATOM      2  C07 8C5 A 923       2.879  31.489   3.421  1.00  0.00     0.147 C 
ATOM      3  N08 8C5 A 923       3.694  30.740   4.253  1.00  0.00    -0.360 N 
ATOM      4  C09 8C5 A 923       3.717  30.996   5.647  1.00  0.00     0.135 A 
ATOM      5  N10 8C5 A 923       4.568  30.329   6.485  1.00  0.00    -0.176 N 
ATOM      6  H10 8C5 A 923       5.214  29.622   6.136  1.00  0.00     0.186 HD
ATOM      7  C11 8C5 A 923       4.510  30.668   7.875  1.00  0.00     0.684 A 
ATOM      8  N12 8C5 A 923       3.647  31.576   8.380  1.00  0.00    -0.201 N 
ATOM      9  H12 8C5 A 923       3.612  31.802   9.374  1.00  0.00     0.183 HD
ATOM     10  C13 8C5 A 923       2.843  32.156   7.485  1.00  0.00     0.125 A 
ATOM     11  C14 8C5 A 923       2.803  31.944   6.112  1.00  0.00     0.071 A 
ATOM     12  C15 8C5 A 923       1.854  32.681   5.249  1.00  0.00     0.179 C 
ATOM     13  O16 8C5 A 923       1.089  33.530   5.750  1.00  0.00    -0.291 OA
ENDROOT
BRANCH   7  14
ATOM     14  N17 8C5 A 923       5.424  29.897   8.605  1.00  0.00    -0.192 N 
ATOM     15  H   8C5 A 923       5.724  30.323   9.441  1.00  0.00     0.184 HD
BRANCH  14  16
ATOM     16  C18 8C5 A 923       6.031  28.560   8.362  1.00  0.00     0.049 A 
ATOM     17  C19 8C5 A 923       5.838  27.823   7.193  1.00  0.00     0.030 A 
ATOM     18  C20 8C5 A 923       6.473  26.577   6.986  1.00  0.00     0.009 A 
ATOM     19  C21 8C5 A 923       7.309  25.969   7.911  1.00  0.00    -0.057 A 
ATOM     20  C22 8C5 A 923       7.511  26.724   9.076  1.00  0.00     0.009 A 
ATOM     21  C23 8C5 A 923       6.895  27.950   9.305  1.00  0.00     0.030 A 
BRANCH  19  22
ATOM     22  C24 8C5 A 923       8.120  24.710   7.591  1.00  0.00     0.066 C 
BRANCH  22  23
ATOM     23  C25 8C5 A 923       7.430  23.854   6.468  1.00  0.00     0.239 C 
BRANCH  23  24
ATOM     24  N26 8C5 A 923       8.154  22.593   6.061  1.00  0.00    -0.071 N 
ATOM     25  C27 8C5 A 923       7.250  21.477   5.678  1.00  0.00     0.235 C 
ATOM     26  C28 8C5 A 923       8.188  20.372   5.157  1.00  0.00     0.029 C 
ATOM     27  C29 8C5 A 923       9.444  21.103   4.720  1.00  0.00     0.029 C 
ATOM     28  C30 8C5 A 923       9.176  22.593   4.980  1.00  0.00     0.235 C 
ATOM     29  H   8C5 A 923       8.651  22.489   6.946  1.00  0.00     0.279 HD
ENDBRANCH  23  24
ENDBRANCH  22  23
ENDBRANCH  19  22
ENDBRANCH  14  16
ENDBRANCH   7  14
BRANCH   3  30
ATOM     30  C31 8C5 A 923       4.450  29.506   3.688  1.00  0.00     0.086 C 
ATOM     31  C32 8C5 A 923       3.736  28.882   2.476  1.00  0.00     0.025 C 
ATOM     32  C33 8C5 A 923       4.423  27.595   2.006  1.00  0.00     0.002 C 
ATOM     33  C34 8C5 A 923       5.801  27.846   1.479  1.00  0.00     0.000 C 
ATOM     34  C35 8C5 A 923       6.594  28.552   2.554  1.00  0.00     0.002 C 
ATOM     35  C36 8C5 A 923       5.898  29.753   3.275  1.00  0.00     0.025 C 
ENDBRANCH   3  30
BRANCH   1  36
ATOM     36  C04 8C5 A 923       0.851  32.826   2.805  1.00  0.00     0.146 C 
ATOM     37  N03 8C5 A 923      -0.455  33.166   3.260  1.00  0.00    -0.248 N 
ATOM     38  H03 8C5 A 923      -0.733  32.877   4.198  1.00  0.00     0.196 HD
ATOM     39  O05 8C5 A 923       1.318  33.144   1.715  1.00  0.00    -0.289 OA
BRANCH  37  40
ATOM     40  O02 8C5 A 923      -1.368  33.871   2.492  1.00  0.00    -0.283 OA
ATOM     41  C01 8C5 A 923      -2.103  33.090   1.529  1.00  0.00     0.237 C 
ENDBRANCH  37  40
ENDBRANCH   1  36
TORSDOF 8
ENDMDL
