MODEL 1
REMARK VINA RESULT:    -8.245      0.000      0.000
REMARK INTER + INTRA:         -18.965
REMARK INTER:                 -14.510
REMARK INTRA:                  -4.455
REMARK UNBOUND:                -4.455
REMARK  13 active torsions:
REMARK  status: ('A' for Active; 'I' for Inactive)
REMARK    1  A    between atoms: C13_3  and  N_18 
REMARK    2  A    between atoms: C13_3  and  C4_37 
REMARK    3  A    between atoms: C20_9  and  O6_61 
REMARK    4  A    between atoms: C24_12  and  C21_25 
REMARK       I    between atoms: C24_12  and  N2_49 
REMARK    5  A    between atoms: C25_13  and  S_62 
REMARK    6  A    between atoms: C28_15  and  N3_50 
REMARK    7  A    between atoms: C31_17  and  C32_29 
REMARK    8  A    between atoms: C31_17  and  N3_50 
REMARK    9  A    between atoms: C18_23  and  N1_48 
REMARK   10  A    between atoms: C27_26  and  N4_51 
REMARK   11  A    between atoms: C37_34  and  O6_61 
REMARK   12  A    between atoms: C5_43  and  C7_45 
REMARK   13  A    between atoms: N2_49  and  S_62 
ROOT
HETATM    1  C19 LBM A 301     -17.323   3.449 -10.491  0.61  9.57     0.067 A 
HETATM    2  C20 LBM A 301     -17.719   3.682  -9.196  0.61  9.64     0.093 A 
HETATM    3  C22 LBM A 301     -16.704   5.836  -9.249  0.61 10.69     0.022 A 
HETATM    4  C23 LBM A 301     -16.317   5.613 -10.557  0.61 12.48     0.030 A 
HETATM    5  C18 LBM A 301     -16.632   4.409 -11.205  0.61 10.37     0.033 A 
HETATM    6  C21 LBM A 301     -17.433   4.876  -8.534  0.61 11.22     0.061 A 
ENDROOT
BRANCH   6   7
HETATM    7  C24 LBM A 301     -17.837   5.158  -7.117  0.61 14.08     0.247 C 
HETATM    8  O   LBM A 301     -19.016   5.142  -6.745  0.61 17.31    -0.273 OA
HETATM    9  N2  LBM A 301     -16.821   5.413  -6.217  0.61 14.68    -0.146 NA
HETATM   10  H1  LBM A 301     -16.435   6.381  -6.462  0.61 15.93     0.149 HD
BRANCH   9  11
HETATM   11  S   LBM A 301     -17.093   5.419  -4.635  0.61 14.72     0.248 S 
HETATM   12  O1  LBM A 301     -18.383   6.018  -4.358  0.61 12.54    -0.205 OA
HETATM   13  O2  LBM A 301     -15.930   5.998  -4.038  0.61 14.51    -0.205 OA
BRANCH  11  14
HETATM   14  C25 LBM A 301     -17.170   3.691  -4.191  0.61 10.27     0.077 A 
HETATM   15  C26 LBM A 301     -15.974   3.030  -3.910  0.61  9.72     0.063 A 
HETATM   16  C27 LBM A 301     -16.008   1.681  -3.606  0.61  8.50     0.130 A 
HETATM   17  C28 LBM A 301     -17.214   0.931  -3.559  0.61 13.78     0.061 A 
HETATM   18  C29 LBM A 301     -18.391   1.639  -3.873  0.61 12.23     0.033 A 
HETATM   19  C30 LBM A 301     -18.372   3.007  -4.162  0.61 13.18     0.027 A 
BRANCH  16  20
HETATM   20  N4  LBM A 301     -14.705   1.063  -3.388  0.61 13.67    -0.113 N 
HETATM   21  O4  LBM A 301     -14.629  -0.146  -3.275  0.61 15.39    -0.532 OA
HETATM   22  O5  LBM A 301     -13.730   1.803  -3.298  0.61 14.63    -0.532 OA
ENDBRANCH  16  20
BRANCH  17  23
HETATM   23  N3  LBM A 301     -17.215  -0.406  -3.201  0.61 15.98    -0.388 N 
HETATM   24  H2  LBM A 301     -16.721  -1.095  -3.853  0.61 15.93     0.159 HD
BRANCH  23  25
HETATM   25  C31 LBM A 301     -17.841  -0.940  -1.999  0.61 19.97     0.124 C 
BRANCH  25  26
HETATM   26  C32 LBM A 301     -17.125  -2.208  -1.557  0.61 26.65     0.007 C 
HETATM   27  C33 LBM A 301     -16.676  -3.036  -2.756  0.61 30.48     0.032 C 
HETATM   28  C34 LBM A 301     -15.937  -4.269  -2.280  0.61 34.09     0.168 C 
HETATM   29  O3  LBM A 301     -14.800  -3.918  -1.498  0.61 35.77    -0.391 OA
HETATM   30  C35 LBM A 301     -15.218  -3.216  -0.325  0.61 34.45     0.168 C 
HETATM   31  C36 LBM A 301     -15.915  -1.926  -0.689  0.61 31.14     0.032 C 
ENDBRANCH  25  26
ENDBRANCH  23  25
ENDBRANCH  17  23
ENDBRANCH  11  14
ENDBRANCH   9  11
ENDBRANCH   6   7
BRANCH   2  32
HETATM   32  O6  LBM A 301     -18.385   2.688  -8.505  0.61 10.20    -0.308 OA
BRANCH  32  33
HETATM   33  C37 LBM A 301     -17.701   1.623  -7.956  0.61 10.68     0.092 A 
HETATM   34  C38 LBM A 301     -18.372   0.452  -7.661  0.61 12.33     0.127 A 
HETATM   35  N5  LBM A 301     -17.775  -0.641  -7.167  0.61 12.17    -0.349 N 
HETATM   36  C39 LBM A 301     -16.450  -0.521  -6.891  0.61 14.07     0.115 A 
ATOM     37  H5  LBM A 301     -18.283  -1.511  -7.009  1.00  0.00     0.167 HD
HETATM   38  C40 LBM A 301     -15.692   0.645  -7.127  0.61  9.74     0.012 A 
HETATM   39  N6  LBM A 301     -15.619  -1.504  -6.438  0.61 14.26    -0.352 N 
HETATM   40  C41 LBM A 301     -16.333   1.738  -7.700  0.61 11.04     0.054 A 
HETATM   41  C42 LBM A 301     -14.318   0.311  -6.765  0.61 11.05     0.032 A 
HETATM   42  C43 LBM A 301     -14.331  -0.989  -6.366  0.61 10.83     0.090 A 
ATOM     43  H6  LBM A 301     -15.897  -2.454  -6.192  1.00  0.00     0.166 HD
ENDBRANCH  32  33
ENDBRANCH   2  32
BRANCH   5  44
HETATM   44  N1  LBM A 301     -16.224   4.158 -12.503  0.61 13.88    -0.377 N 
HETATM   45  C15 LBM A 301     -15.463   5.135 -13.296  0.61 14.75     0.153 C 
HETATM   46  C14 LBM A 301     -14.732   4.435 -14.449  0.61 13.99     0.292 C 
HETATM   47  N   LBM A 301     -15.665   3.670 -15.308  0.61 14.95     0.095 N 
HETATM   48  C17 LBM A 301     -16.365   2.680 -14.456  0.61 13.98     0.292 C 
HETATM   49  C16 LBM A 301     -17.132   3.382 -13.350  0.61 10.05     0.153 C 
BRANCH  47  50
HETATM   50  C13 LBM A 301     -14.947   2.985 -16.401  0.61 16.17     0.307 C 
BRANCH  50  51
HETATM   51  C4  LBM A 301     -14.258   3.903 -17.374  0.61 17.66    -0.045 C 
HETATM   52  C3  LBM A 301     -15.106   4.938 -18.069  0.61 21.67     0.037 C 
HETATM   53  C2  LBM A 301     -14.402   5.402 -19.336  0.61 21.85     0.013 C 
HETATM   54  C1  LBM A 301     -12.959   5.835 -19.058  0.61 18.51    -0.043 C 
HETATM   55  C   LBM A 301     -12.328   6.396 -20.332  0.61 25.87     0.015 C 
HETATM   56  C44 LBM A 301     -12.931   6.903 -17.969  0.61 13.59     0.015 C 
HETATM   57  C6  LBM A 301     -12.169   4.609 -18.595  0.61 16.31     0.048 C 
HETATM   58  C5  LBM A 301     -12.934   3.703 -17.681  0.61 17.48    -0.043 C 
BRANCH  58  59
HETATM   59  C7  LBM A 301     -12.143   2.559 -17.181  0.61 14.42    -0.029 A 
HETATM   60  C12 LBM A 301     -12.211   1.324 -17.826  0.61 15.00     0.013 A 
HETATM   61  C11 LBM A 301     -11.421   0.279 -17.406  0.61 14.69     0.024 A 
HETATM   62  C10 LBM A 301     -10.586   0.432 -16.307  0.61 16.38     0.034 A 
HETATM   63  C9  LBM A 301     -10.541   1.644 -15.634  0.61 12.57     0.024 A 
HETATM   64 CL   LBM A 301      -9.651  -0.907 -15.739  0.61 24.14    -0.084 Cl
HETATM   65  C8  LBM A 301     -11.310   2.696 -16.072  0.61 15.30     0.013 A 
ENDBRANCH  58  59
ENDBRANCH  50  51
ENDBRANCH  47  50
ENDBRANCH   5  44
TORSDOF 13
ENDMDL
MODEL 2
REMARK VINA RESULT:    -6.813      1.420      2.083
REMARK INTER + INTRA:         -16.446
REMARK INTER:                 -11.807
REMARK INTRA:                  -4.639
REMARK UNBOUND:                -4.455
REMARK  13 active torsions:
REMARK  status: ('A' for Active; 'I' for Inactive)
REMARK    1  A    between atoms: C13_3  and  N_18 
REMARK    2  A    between atoms: C13_3  and  C4_37 
REMARK    3  A    between atoms: C20_9  and  O6_61 
REMARK    4  A    between atoms: C24_12  and  C21_25 
REMARK       I    between atoms: C24_12  and  N2_49 
REMARK    5  A    between atoms: C25_13  and  S_62 
REMARK    6  A    between atoms: C28_15  and  N3_50 
REMARK    7  A    between atoms: C31_17  and  C32_29 
REMARK    8  A    between atoms: C31_17  and  N3_50 
REMARK    9  A    between atoms: C18_23  and  N1_48 
REMARK   10  A    between atoms: C27_26  and  N4_51 
REMARK   11  A    between atoms: C37_34  and  O6_61 
REMARK   12  A    between atoms: C5_43  and  C7_45 
REMARK   13  A    between atoms: N2_49  and  S_62 
ROOT
HETATM    1  C19 LBM A 301     -16.211   4.258 -10.464  0.61  9.57     0.067 A 
HETATM    2  C20 LBM A 301     -16.585   4.618  -9.193  0.61  9.64     0.093 A 
HETATM    3  C22 LBM A 301     -17.622   6.591 -10.031  0.61 10.69     0.022 A 
HETATM    4  C23 LBM A 301     -17.262   6.226 -11.315  0.61 12.48     0.030 A 
HETATM    5  C18 LBM A 301     -16.553   5.039 -11.552  0.61 10.37     0.033 A 
HETATM    6  C21 LBM A 301     -17.305   5.784  -8.930  0.61 11.22     0.061 A 
ENDROOT
BRANCH   6   7
HETATM    7  C24 LBM A 301     -17.718   6.214  -7.553  0.61 14.08     0.247 C 
HETATM    8  O   LBM A 301     -18.845   6.657  -7.304  0.61 17.31    -0.273 OA
HETATM    9  N2  LBM A 301     -16.784   6.067  -6.547  0.61 14.68    -0.146 NA
HETATM   10  H1  LBM A 301     -16.032   6.808  -6.720  0.61 15.93     0.149 HD
BRANCH   9  11
HETATM   11  S   LBM A 301     -17.199   6.193  -5.002  0.61 14.72     0.248 S 
HETATM   12  O1  LBM A 301     -18.473   6.874  -4.887  0.61 12.54    -0.205 OA
HETATM   13  O2  LBM A 301     -16.065   6.751  -4.334  0.61 14.51    -0.205 OA
BRANCH  11  14
HETATM   14  C25 LBM A 301     -17.414   4.505  -4.460  0.61 10.27     0.077 A 
HETATM   15  C26 LBM A 301     -16.279   3.705  -4.334  0.61  9.72     0.063 A 
HETATM   16  C27 LBM A 301     -16.427   2.382  -3.958  0.61  8.50     0.130 A 
HETATM   17  C28 LBM A 301     -17.692   1.796  -3.684  0.61 13.78     0.061 A 
HETATM   18  C29 LBM A 301     -18.809   2.639  -3.848  0.61 12.23     0.033 A 
HETATM   19  C30 LBM A 301     -18.670   3.983  -4.208  0.61 13.18     0.027 A 
BRANCH  16  20
HETATM   20  N4  LBM A 301     -15.192   1.608  -3.913  0.61 13.67    -0.113 N 
HETATM   21  O4  LBM A 301     -14.142   2.170  -3.667  0.61 15.39    -0.532 OA
HETATM   22  O5  LBM A 301     -15.262   0.407  -4.158  0.61 14.63    -0.532 OA
ENDBRANCH  16  20
BRANCH  17  23
HETATM   23  N3  LBM A 301     -17.799   0.483  -3.260  0.61 15.98    -0.388 N 
HETATM   24  H2  LBM A 301     -17.001   0.084  -2.670  0.61 15.93     0.159 HD
BRANCH  23  25
HETATM   25  C31 LBM A 301     -18.923  -0.395  -3.561  0.61 19.97     0.124 C 
BRANCH  25  26
HETATM   26  C32 LBM A 301     -18.814  -1.678  -2.750  0.61 26.65     0.007 C 
HETATM   27  C33 LBM A 301     -20.187  -2.173  -2.310  0.61 30.48     0.032 C 
HETATM   28  C34 LBM A 301     -20.043  -3.467  -1.538  0.61 34.09     0.168 C 
HETATM   29  O3  LBM A 301     -19.411  -4.471  -2.327  0.61 35.77    -0.391 OA
HETATM   30  C35 LBM A 301     -18.089  -4.052  -2.672  0.61 34.45     0.168 C 
HETATM   31  C36 LBM A 301     -18.121  -2.793  -3.506  0.61 31.14     0.032 C 
ENDBRANCH  25  26
ENDBRANCH  23  25
ENDBRANCH  17  23
ENDBRANCH  11  14
ENDBRANCH   9  11
ENDBRANCH   6   7
BRANCH   2  32
HETATM   32  O6  LBM A 301     -16.203   3.826  -8.127  0.61 10.20    -0.308 OA
BRANCH  32  33
HETATM   33  C37 LBM A 301     -16.835   2.627  -7.869  0.61 10.68     0.092 A 
HETATM   34  C38 LBM A 301     -16.087   1.491  -7.630  0.61 12.33     0.127 A 
HETATM   35  N5  LBM A 301     -16.622   0.299  -7.330  0.61 12.17    -0.349 N 
HETATM   36  C39 LBM A 301     -17.979   0.237  -7.343  0.61 14.07     0.115 A 
ATOM     37  H5  LBM A 301     -16.046  -0.512  -7.104  1.00  0.00     0.167 HD
HETATM   38  C40 LBM A 301     -18.822   1.337  -7.609  0.61  9.74     0.012 A 
HETATM   39  N6  LBM A 301     -18.749  -0.842  -7.019  0.61 14.26    -0.352 N 
HETATM   40  C41 LBM A 301     -18.231   2.572  -7.853  0.61 11.04     0.054 A 
HETATM   41  C42 LBM A 301     -20.186   0.846  -7.441  0.61 11.05     0.032 A 
HETATM   42  C43 LBM A 301     -20.084  -0.461  -7.081  0.61 10.83     0.090 A 
ATOM     43  H6  LBM A 301     -18.403  -1.770  -6.774  1.00  0.00     0.166 HD
ENDBRANCH  32  33
ENDBRANCH   2  32
BRANCH   5  44
HETATM   44  N1  LBM A 301     -16.155   4.676 -12.827  0.61 13.88    -0.377 N 
HETATM   45  C15 LBM A 301     -15.603   5.642 -13.788  0.61 14.75     0.153 C 
HETATM   46  C14 LBM A 301     -14.807   4.916 -14.879  0.61 13.99     0.292 C 
HETATM   47  N   LBM A 301     -15.625   3.893 -15.570  0.61 14.95     0.095 N 
HETATM   48  C17 LBM A 301     -16.114   2.933 -14.553  0.61 13.98     0.292 C 
HETATM   49  C16 LBM A 301     -16.949   3.650 -13.506  0.61 10.05     0.153 C 
BRANCH  47  50
HETATM   50  C13 LBM A 301     -14.842   3.187 -16.603  0.61 16.17     0.307 C 
BRANCH  50  51
HETATM   51  C4  LBM A 301     -14.123   4.086 -17.572  0.61 17.66    -0.045 C 
HETATM   52  C3  LBM A 301     -14.942   5.137 -18.280  0.61 21.67     0.037 C 
HETATM   53  C2  LBM A 301     -14.216   5.580 -19.542  0.61 21.85     0.013 C 
HETATM   54  C1  LBM A 301     -12.766   5.983 -19.251  0.61 18.51    -0.043 C 
HETATM   55  C   LBM A 301     -12.110   6.525 -20.520  0.61 25.87     0.015 C 
HETATM   56  C44 LBM A 301     -12.726   7.055 -18.165  0.61 13.59     0.015 C 
HETATM   57  C6  LBM A 301     -12.008   4.742 -18.774  0.61 16.31     0.048 C 
HETATM   58  C5  LBM A 301     -12.801   3.856 -17.864  0.61 17.48    -0.043 C 
BRANCH  58  59
HETATM   59  C7  LBM A 301     -12.040   2.698 -17.353  0.61 14.42    -0.029 A 
HETATM   60  C12 LBM A 301     -11.255   2.825 -16.207  0.61 15.00     0.013 A 
HETATM   61  C11 LBM A 301     -10.604   1.729 -15.688  0.61 14.69     0.024 A 
HETATM   62  C10 LBM A 301     -10.685   0.500 -16.329  0.61 16.38     0.034 A 
HETATM   63  C9  LBM A 301     -11.431   0.372 -17.491  0.61 12.57     0.024 A 
HETATM   64 CL   LBM A 301      -9.805  -0.854 -15.713  0.61 24.14    -0.084 Cl
HETATM   65  C8  LBM A 301     -12.104   1.462 -17.992  0.61 15.30     0.013 A 
ENDBRANCH  58  59
ENDBRANCH  50  51
ENDBRANCH  47  50
ENDBRANCH   5  44
TORSDOF 13
ENDMDL
MODEL 3
REMARK VINA RESULT:    -5.402      1.908      2.977
REMARK INTER + INTRA:         -13.962
REMARK INTER:                  -9.091
REMARK INTRA:                  -4.871
REMARK UNBOUND:                -4.455
REMARK  13 active torsions:
REMARK  status: ('A' for Active; 'I' for Inactive)
REMARK    1  A    between atoms: C13_3  and  N_18 
REMARK    2  A    between atoms: C13_3  and  C4_37 
REMARK    3  A    between atoms: C20_9  and  O6_61 
REMARK    4  A    between atoms: C24_12  and  C21_25 
REMARK       I    between atoms: C24_12  and  N2_49 
REMARK    5  A    between atoms: C25_13  and  S_62 
REMARK    6  A    between atoms: C28_15  and  N3_50 
REMARK    7  A    between atoms: C31_17  and  C32_29 
REMARK    8  A    between atoms: C31_17  and  N3_50 
REMARK    9  A    between atoms: C18_23  and  N1_48 
REMARK   10  A    between atoms: C27_26  and  N4_51 
REMARK   11  A    between atoms: C37_34  and  O6_61 
REMARK   12  A    between atoms: C5_43  and  C7_45 
REMARK   13  A    between atoms: N2_49  and  S_62 
ROOT
HETATM    1  C19 LBM A 301     -16.982   5.301 -10.056  0.61  9.57     0.067 A 
HETATM    2  C20 LBM A 301     -17.165   5.239  -8.696  0.61  9.64     0.093 A 
HETATM    3  C22 LBM A 301     -18.512   7.202  -8.764  0.61 10.69     0.022 A 
HETATM    4  C23 LBM A 301     -18.344   7.260 -10.135  0.61 12.48     0.030 A 
HETATM    5  C18 LBM A 301     -17.578   6.296 -10.807  0.61 10.37     0.033 A 
HETATM    6  C21 LBM A 301     -17.936   6.174  -8.005  0.61 11.22     0.061 A 
ENDROOT
BRANCH   6   7
HETATM    7  C24 LBM A 301     -18.145   6.144  -6.519  0.61 14.08     0.247 C 
HETATM    8  O   LBM A 301     -19.268   6.090  -6.006  0.61 17.31    -0.273 OA
HETATM    9  N2  LBM A 301     -17.012   6.150  -5.729  0.61 14.68    -0.146 NA
HETATM   10  H1  LBM A 301     -16.594   7.132  -5.806  0.61 15.93     0.149 HD
BRANCH   9  11
HETATM   11  S   LBM A 301     -17.089   5.809  -4.163  0.61 14.72     0.248 S 
HETATM   12  O1  LBM A 301     -18.336   6.298  -3.612  0.61 12.54    -0.205 OA
HETATM   13  O2  LBM A 301     -15.863   6.279  -3.597  0.61 14.51    -0.205 OA
BRANCH  11  14
HETATM   14  C25 LBM A 301     -17.107   4.025  -4.097  0.61 10.27     0.077 A 
HETATM   15  C26 LBM A 301     -15.906   3.346  -4.298  0.61  9.72     0.063 A 
HETATM   16  C27 LBM A 301     -15.906   1.963  -4.294  0.61  8.50     0.130 A 
HETATM   17  C28 LBM A 301     -17.082   1.193  -4.085  0.61 13.78     0.061 A 
HETATM   18  C29 LBM A 301     -18.273   1.925  -3.910  0.61 12.23     0.033 A 
HETATM   19  C30 LBM A 301     -18.282   3.323  -3.892  0.61 13.18     0.027 A 
BRANCH  16  20
HETATM   20  N4  LBM A 301     -14.617   1.342  -4.574  0.61 13.67    -0.113 N 
HETATM   21  O4  LBM A 301     -13.612   1.790  -4.056  0.61 15.39    -0.532 OA
HETATM   22  O5  LBM A 301     -14.596   0.397  -5.358  0.61 14.63    -0.532 OA
ENDBRANCH  16  20
BRANCH  17  23
HETATM   23  N3  LBM A 301     -17.036  -0.189  -4.037  0.61 15.98    -0.388 N 
HETATM   24  H2  LBM A 301     -16.409  -0.691  -4.744  0.61 15.93     0.159 HD
BRANCH  23  25
HETATM   25  C31 LBM A 301     -17.781  -1.008  -3.090  0.61 19.97     0.124 C 
BRANCH  25  26
HETATM   26  C32 LBM A 301     -16.850  -2.011  -2.423  0.61 26.65     0.007 C 
HETATM   27  C33 LBM A 301     -15.418  -1.855  -2.924  0.61 30.48     0.032 C 
HETATM   28  C34 LBM A 301     -14.516  -2.842  -2.214  0.61 34.09     0.168 C 
HETATM   29  O3  LBM A 301     -14.545  -2.646  -0.804  0.61 35.77    -0.391 OA
HETATM   30  C35 LBM A 301     -15.867  -2.876  -0.312  0.61 34.45     0.168 C 
HETATM   31  C36 LBM A 301     -16.845  -1.893  -0.913  0.61 31.14     0.032 C 
ENDBRANCH  25  26
ENDBRANCH  23  25
ENDBRANCH  17  23
ENDBRANCH  11  14
ENDBRANCH   9  11
ENDBRANCH   6   7
BRANCH   2  32
HETATM   32  O6  LBM A 301     -16.532   4.244  -7.975  0.61 10.20    -0.308 OA
BRANCH  32  33
HETATM   33  C37 LBM A 301     -17.061   2.971  -7.904  0.61 10.68     0.092 A 
HETATM   34  C38 LBM A 301     -16.228   1.873  -8.000  0.61 12.33     0.127 A 
HETATM   35  N5  LBM A 301     -16.654   0.607  -7.899  0.61 12.17    -0.349 N 
HETATM   36  C39 LBM A 301     -17.996   0.440  -7.766  0.61 14.07     0.115 A 
ATOM     37  H5  LBM A 301     -16.010  -0.184  -7.919  1.00  0.00     0.167 HD
HETATM   38  C40 LBM A 301     -18.924   1.500  -7.694  0.61  9.74     0.012 A 
HETATM   39  N6  LBM A 301     -18.658  -0.739  -7.591  0.61 14.26    -0.352 N 
HETATM   40  C41 LBM A 301     -18.437   2.803  -7.738  0.61 11.04     0.054 A 
HETATM   41  C42 LBM A 301     -20.226   0.879  -7.476  0.61 11.05     0.032 A 
HETATM   42  C43 LBM A 301     -20.007  -0.462  -7.415  0.61 10.83     0.090 A 
ATOM     43  H6  LBM A 301     -18.233  -1.667  -7.590  1.00  0.00     0.166 HD
ENDBRANCH  32  33
ENDBRANCH   2  32
BRANCH   5  44
HETATM   44  N1  LBM A 301     -17.373   6.359 -12.174  0.61 13.88    -0.377 N 
HETATM   45  C15 LBM A 301     -18.298   7.056 -13.081  0.61 14.75     0.153 C 
HETATM   46  C14 LBM A 301     -17.598   7.396 -14.402  0.61 13.99     0.292 C 
HETATM   47  N   LBM A 301     -17.030   6.192 -15.050  0.61 14.95     0.095 N 
HETATM   48  C17 LBM A 301     -16.080   5.565 -14.101  0.61 13.98     0.292 C 
HETATM   49  C16 LBM A 301     -16.792   5.179 -12.817  0.61 10.05     0.153 C 
BRANCH  47  50
HETATM   50  C13 LBM A 301     -16.340   6.536 -16.309  0.61 16.17     0.307 C 
BRANCH  50  51
HETATM   51  C4  LBM A 301     -16.850   5.809 -17.525  0.61 17.66    -0.045 C 
HETATM   52  C3  LBM A 301     -18.319   5.937 -17.843  0.61 21.67     0.037 C 
HETATM   53  C2  LBM A 301     -18.746   4.782 -18.737  0.61 21.85     0.013 C 
HETATM   54  C1  LBM A 301     -17.833   4.644 -19.961  0.61 18.51    -0.043 C 
HETATM   55  C   LBM A 301     -18.362   3.548 -20.885  0.61 25.87     0.015 C 
HETATM   56  C44 LBM A 301     -17.774   5.964 -20.724  0.61 13.59     0.015 C 
HETATM   57  C6  LBM A 301     -16.431   4.270 -19.475  0.61 16.31     0.048 C 
HETATM   58  C5  LBM A 301     -16.010   4.979 -18.226  0.61 17.48    -0.043 C 
BRANCH  58  59
HETATM   59  C7  LBM A 301     -14.630   4.666 -17.803  0.61 14.42    -0.029 A 
HETATM   60  C12 LBM A 301     -13.572   5.485 -18.198  0.61 15.00     0.013 A 
HETATM   61  C11 LBM A 301     -12.296   5.236 -17.744  0.61 14.69     0.024 A 
HETATM   62  C10 LBM A 301     -12.046   4.140 -16.930  0.61 16.38     0.034 A 
HETATM   63  C9  LBM A 301     -13.084   3.297 -16.564  0.61 12.57     0.024 A 
HETATM   64 CL   LBM A 301     -10.430   3.791 -16.425  0.61 24.14    -0.084 Cl
HETATM   65  C8  LBM A 301     -14.363   3.562 -16.995  0.61 15.30     0.013 A 
ENDBRANCH  58  59
ENDBRANCH  50  51
ENDBRANCH  47  50
ENDBRANCH   5  44
TORSDOF 13
ENDMDL
