MODEL 1
REMARK VINA RESULT:    -8.030      0.000      0.000
REMARK INTER + INTRA:         -10.424
REMARK INTER:                 -10.377
REMARK INTRA:                  -0.047
REMARK UNBOUND:                -0.047
REMARK  5 active torsions:
REMARK  status: ('A' for Active; 'I' for Inactive)
REMARK    1  A    between atoms: C2_2  and  N1_24 
REMARK       I    between atoms: C3_3  and  N2_26 
REMARK       I    between atoms: C3_3  and  N1_24 
REMARK    2  A    between atoms: C13_7  and  C15_9 
REMARK    3  A    between atoms: C15_9  and  C18_12 
REMARK    4  A    between atoms: C10_18  and  C9_19 
REMARK    5  A    between atoms: C7_27  and  C8_28 
REMARK       I    between atoms: C8_28  and  N3_29 
ROOT
ATOM      1  C1  1LT A1102      -3.106 -11.626  15.642  1.00  0.00     0.025 A 
ATOM      2  C2  1LT A1102      -1.622 -10.335  14.630  1.00  0.00     0.153 A 
ATOM      3  C9  1LT A1102      -2.727 -10.868  16.746  1.00  0.00     0.041 A 
ATOM      4  C   1LT A1102      -4.107 -12.735  15.643  1.00  0.00     0.070 C 
ATOM      5  S   1LT A1102      -1.536  -9.696  16.233  1.00  0.00    -0.051 SA
ATOM      6  N   1LT A1102      -2.468 -11.318  14.458  1.00  0.00    -0.339 N 
ATOM      7  HN  1LT A1102      -2.634 -11.791  13.569  1.00  0.00     0.168 HD
ENDROOT
BRANCH   2   8
ATOM      8  N1  1LT A1102      -0.863  -9.869  13.573  1.00  0.00    -0.289 N 
ATOM      9  C3  1LT A1102       0.027  -8.788  13.651  1.00  0.00     0.325 C 
ATOM     10  N2  1LT A1102       0.703  -8.437  12.498  1.00  0.00    -0.320 N 
ATOM     11  O   1LT A1102       0.204  -8.176  14.694  1.00  0.00    -0.247 OA
ATOM     12  C4  1LT A1102       0.602  -9.068  11.173  1.00  0.00     0.129 C 
ATOM     13  C7  1LT A1102       1.660  -7.319  12.519  1.00  0.00     0.180 C 
ATOM     14  C5  1LT A1102       1.249  -8.058  10.250  1.00  0.00     0.022 C 
ATOM     15  C6  1LT A1102       2.257  -7.323  11.102  1.00  0.00     0.037 C 
ATOM     16  H   1LT A1102      -0.954 -10.327  12.707  1.00  0.00     0.172 HD
BRANCH  13  17
ATOM     17  C8  1LT A1102       1.023  -5.974  12.873  1.00  0.00     0.238 C 
ATOM     18  O1  1LT A1102       1.627  -5.168  13.585  1.00  0.00    -0.271 OA
ATOM     19  N3  1LT A1102      -0.211  -5.770  12.441  1.00  0.00    -0.368 N 
ATOM     20  H   1LT A1102      -0.653  -6.443  11.874  1.00  0.00     0.159 HD
ATOM     21  H   1LT A1102      -0.689  -4.945  12.686  1.00  0.00     0.159 HD
ENDBRANCH  13  17
ENDBRANCH   2   8
BRANCH   3  22
ATOM     22  C10 1LT A1102      -3.122 -10.840  18.172  1.00  0.00    -0.014 A 
ATOM     23  C11 1LT A1102      -4.176 -11.612  18.646  1.00  0.00     0.030 A 
ATOM     24  C12 1LT A1102      -4.508 -11.528  19.981  1.00  0.00     0.089 A 
ATOM     25  N4  1LT A1102      -3.857 -10.756  20.863  1.00  0.00    -0.368 N 
ATOM     26  C13 1LT A1102      -2.814 -10.044  20.414  1.00  0.00     0.026 A 
ATOM     27  H4  1LT A1102      -4.145 -10.712  21.840  1.00  0.00     0.165 HD
ATOM     28  C14 1LT A1102      -2.413 -10.048  19.070  1.00  0.00     0.039 A 
BRANCH  26  29
ATOM     29  C15 1LT A1102      -2.031  -9.240  21.480  1.00  0.00     0.092 C 
ATOM     30  C16 1LT A1102      -1.229  -8.097  20.838  1.00  0.00     0.031 C 
ATOM     31  C17 1LT A1102      -2.999  -8.667  22.530  1.00  0.00     0.031 C 
BRANCH  29  32
ATOM     32  C18 1LT A1102      -0.967 -10.212  22.246  1.00  0.00     0.400 C 
ATOM     33  F1  1LT A1102      -0.599 -11.240  21.489  1.00  0.00    -0.170 F 
ATOM     34  F   1LT A1102      -1.450 -10.727  23.371  1.00  0.00    -0.170 F 
ATOM     35  F2  1LT A1102       0.135  -9.536  22.568  1.00  0.00    -0.170 F 
ENDBRANCH  29  32
ENDBRANCH  26  29
ENDBRANCH   3  22
TORSDOF 5
ENDMDL
MODEL 2
REMARK VINA RESULT:    -7.136      1.078      1.487
REMARK INTER + INTRA:          -9.270
REMARK INTER:                  -9.640
REMARK INTRA:                   0.370
REMARK UNBOUND:                -0.047
REMARK  5 active torsions:
REMARK  status: ('A' for Active; 'I' for Inactive)
REMARK    1  A    between atoms: C2_2  and  N1_24 
REMARK       I    between atoms: C3_3  and  N2_26 
REMARK       I    between atoms: C3_3  and  N1_24 
REMARK    2  A    between atoms: C13_7  and  C15_9 
REMARK    3  A    between atoms: C15_9  and  C18_12 
REMARK    4  A    between atoms: C10_18  and  C9_19 
REMARK    5  A    between atoms: C7_27  and  C8_28 
REMARK       I    between atoms: C8_28  and  N3_29 
ROOT
ATOM      1  C1  1LT A1102      -3.175 -11.651  15.684  1.00  0.00     0.025 A 
ATOM      2  C2  1LT A1102      -1.676 -10.375  14.675  1.00  0.00     0.153 A 
ATOM      3  C9  1LT A1102      -2.765 -10.920  16.795  1.00  0.00     0.041 A 
ATOM      4  C   1LT A1102      -4.200 -12.739  15.680  1.00  0.00     0.070 C 
ATOM      5  S   1LT A1102      -1.556  -9.766  16.287  1.00  0.00    -0.051 SA
ATOM      6  N   1LT A1102      -2.545 -11.336  14.497  1.00  0.00    -0.339 N 
ATOM      7  HN  1LT A1102      -2.733 -11.790  13.603  1.00  0.00     0.168 HD
ENDROOT
BRANCH   2   8
ATOM      8  N1  1LT A1102      -0.921  -9.908  13.616  1.00  0.00    -0.289 N 
ATOM      9  C3  1LT A1102      -0.027  -8.829  13.694  1.00  0.00     0.325 C 
ATOM     10  N2  1LT A1102       0.644  -8.476  12.539  1.00  0.00    -0.320 N 
ATOM     11  O   1LT A1102       0.156  -8.221  14.737  1.00  0.00    -0.247 OA
ATOM     12  C4  1LT A1102       0.536  -9.102  11.211  1.00  0.00     0.129 C 
ATOM     13  C7  1LT A1102       1.605  -7.361  12.558  1.00  0.00     0.180 C 
ATOM     14  C5  1LT A1102       1.181  -8.091  10.289  1.00  0.00     0.022 C 
ATOM     15  C6  1LT A1102       2.195  -7.362  11.140  1.00  0.00     0.037 C 
ATOM     16  H   1LT A1102      -1.017 -10.362  12.748  1.00  0.00     0.172 HD
BRANCH  13  17
ATOM     17  C8  1LT A1102       0.972  -6.015  12.920  1.00  0.00     0.238 C 
ATOM     18  O1  1LT A1102       1.573  -5.222  13.651  1.00  0.00    -0.271 OA
ATOM     19  N3  1LT A1102      -0.254  -5.796  12.474  1.00  0.00    -0.368 N 
ATOM     20  H   1LT A1102      -0.692  -6.459  11.893  1.00  0.00     0.159 HD
ATOM     21  H   1LT A1102      -0.728  -4.970  12.722  1.00  0.00     0.159 HD
ENDBRANCH  13  17
ENDBRANCH   2   8
BRANCH   3  22
ATOM     22  C10 1LT A1102      -3.142 -10.908  18.226  1.00  0.00    -0.014 A 
ATOM     23  C11 1LT A1102      -4.207 -11.665  18.702  1.00  0.00     0.030 A 
ATOM     24  C12 1LT A1102      -4.519 -11.596  20.041  1.00  0.00     0.089 A 
ATOM     25  N4  1LT A1102      -3.840 -10.854  20.928  1.00  0.00    -0.368 N 
ATOM     26  C13 1LT A1102      -2.788 -10.158  20.478  1.00  0.00     0.026 A 
ATOM     27  H4  1LT A1102      -4.115 -10.821  21.910  1.00  0.00     0.165 HD
ATOM     28  C14 1LT A1102      -2.404 -10.148  19.129  1.00  0.00     0.039 A 
BRANCH  26  29
ATOM     29  C15 1LT A1102      -1.974  -9.390  21.547  1.00  0.00     0.092 C 
ATOM     30  C16 1LT A1102      -2.825  -9.103  22.795  1.00  0.00     0.031 C 
ATOM     31  C17 1LT A1102      -0.727 -10.199  21.946  1.00  0.00     0.031 C 
BRANCH  29  32
ATOM     32  C18 1LT A1102      -1.480  -7.953  20.953  1.00  0.00     0.400 C 
ATOM     33  F1  1LT A1102      -0.717  -8.096  19.875  1.00  0.00    -0.170 F 
ATOM     34  F   1LT A1102      -0.771  -7.246  21.825  1.00  0.00    -0.170 F 
ATOM     35  F2  1LT A1102      -2.528  -7.206  20.606  1.00  0.00    -0.170 F 
ENDBRANCH  29  32
ENDBRANCH  26  29
ENDBRANCH   3  22
TORSDOF 5
ENDMDL
MODEL 3
REMARK VINA RESULT:    -7.040      1.521      2.193
REMARK INTER + INTRA:          -9.146
REMARK INTER:                  -8.224
REMARK INTRA:                  -0.922
REMARK UNBOUND:                -0.047
REMARK  5 active torsions:
REMARK  status: ('A' for Active; 'I' for Inactive)
REMARK    1  A    between atoms: C2_2  and  N1_24 
REMARK       I    between atoms: C3_3  and  N2_26 
REMARK       I    between atoms: C3_3  and  N1_24 
REMARK    2  A    between atoms: C13_7  and  C15_9 
REMARK    3  A    between atoms: C15_9  and  C18_12 
REMARK    4  A    between atoms: C10_18  and  C9_19 
REMARK    5  A    between atoms: C7_27  and  C8_28 
REMARK       I    between atoms: C8_28  and  N3_29 
ROOT
ATOM      1  C1  1LT A1102      -2.144 -10.666  15.991  1.00  0.00     0.025 A 
ATOM      2  C2  1LT A1102      -0.655  -9.091  15.546  1.00  0.00     0.153 A 
ATOM      3  C9  1LT A1102      -2.102 -10.079  17.252  1.00  0.00     0.041 A 
ATOM      4  C   1LT A1102      -2.975 -11.845  15.600  1.00  0.00     0.070 C 
ATOM      5  S   1LT A1102      -0.989  -8.733  17.203  1.00  0.00    -0.051 SA
ATOM      6  N   1LT A1102      -1.316 -10.102  15.042  1.00  0.00    -0.339 N 
ATOM      7  HN  1LT A1102      -1.231 -10.428  14.079  1.00  0.00     0.168 HD
ENDROOT
BRANCH   2   8
ATOM      8  N1  1LT A1102       0.243  -8.384  14.770  1.00  0.00    -0.289 N 
ATOM      9  C3  1LT A1102       0.171  -8.276  13.373  1.00  0.00     0.325 C 
ATOM     10  N2  1LT A1102       1.156  -7.542  12.741  1.00  0.00    -0.320 N 
ATOM     11  O   1LT A1102      -0.724  -8.808  12.733  1.00  0.00    -0.247 OA
ATOM     12  C4  1LT A1102       2.293  -6.845  13.362  1.00  0.00     0.129 C 
ATOM     13  C7  1LT A1102       1.128  -7.381  11.278  1.00  0.00     0.180 C 
ATOM     14  C5  1LT A1102       3.211  -6.554  12.195  1.00  0.00     0.022 C 
ATOM     15  C6  1LT A1102       2.305  -6.434  10.992  1.00  0.00     0.037 C 
ATOM     16  H   1LT A1102       0.983  -7.925  15.228  1.00  0.00     0.172 HD
BRANCH  13  17
ATOM     17  C8  1LT A1102       1.252  -8.702  10.515  1.00  0.00     0.238 C 
ATOM     18  O1  1LT A1102       0.342  -9.076   9.769  1.00  0.00    -0.271 OA
ATOM     19  N3  1LT A1102       2.330  -9.429  10.757  1.00  0.00    -0.368 N 
ATOM     20  H   1LT A1102       3.029  -9.087  11.360  1.00  0.00     0.159 HD
ATOM     21  H   1LT A1102       2.434 -10.312  10.335  1.00  0.00     0.159 HD
ENDBRANCH  13  17
ENDBRANCH   2   8
BRANCH   3  22
ATOM     22  C10 1LT A1102      -2.788 -10.333  18.539  1.00  0.00    -0.014 A 
ATOM     23  C11 1LT A1102      -3.816 -11.264  18.641  1.00  0.00     0.030 A 
ATOM     24  C12 1LT A1102      -4.427 -11.441  19.862  1.00  0.00     0.089 A 
ATOM     25  N4  1LT A1102      -4.075 -10.781  20.974  1.00  0.00    -0.368 N 
ATOM     26  C13 1LT A1102      -3.056  -9.914  20.886  1.00  0.00     0.026 A 
ATOM     27  H4  1LT A1102      -4.565 -10.932  21.857  1.00  0.00     0.165 HD
ATOM     28  C14 1LT A1102      -2.385  -9.651  19.683  1.00  0.00     0.039 A 
BRANCH  26  29
ATOM     29  C15 1LT A1102      -2.618  -9.244  22.211  1.00  0.00     0.092 C 
ATOM     30  C16 1LT A1102      -2.363  -7.740  22.015  1.00  0.00     0.031 C 
ATOM     31  C17 1LT A1102      -3.694  -9.450  23.291  1.00  0.00     0.031 C 
BRANCH  29  32
ATOM     32  C18 1LT A1102      -1.226  -9.909  22.743  1.00  0.00     0.400 C 
ATOM     33  F1  1LT A1102      -0.821  -9.365  23.885  1.00  0.00    -0.170 F 
ATOM     34  F   1LT A1102      -0.223  -9.771  21.884  1.00  0.00    -0.170 F 
ATOM     35  F2  1LT A1102      -1.383 -11.215  22.953  1.00  0.00    -0.170 F 
ENDBRANCH  29  32
ENDBRANCH  26  29
ENDBRANCH   3  22
TORSDOF 5
ENDMDL
MODEL 4
REMARK VINA RESULT:    -6.727      1.845      2.552
REMARK INTER + INTRA:          -8.741
REMARK INTER:                  -7.993
REMARK INTRA:                  -0.748
REMARK UNBOUND:                -0.047
REMARK  5 active torsions:
REMARK  status: ('A' for Active; 'I' for Inactive)
REMARK    1  A    between atoms: C2_2  and  N1_24 
REMARK       I    between atoms: C3_3  and  N2_26 
REMARK       I    between atoms: C3_3  and  N1_24 
REMARK    2  A    between atoms: C13_7  and  C15_9 
REMARK    3  A    between atoms: C15_9  and  C18_12 
REMARK    4  A    between atoms: C10_18  and  C9_19 
REMARK    5  A    between atoms: C7_27  and  C8_28 
REMARK       I    between atoms: C8_28  and  N3_29 
ROOT
ATOM      1  C1  1LT A1102      -2.237 -10.768  15.718  1.00  0.00     0.025 A 
ATOM      2  C2  1LT A1102      -0.756  -9.196  15.242  1.00  0.00     0.153 A 
ATOM      3  C9  1LT A1102      -2.139 -10.206  16.987  1.00  0.00     0.041 A 
ATOM      4  C   1LT A1102      -3.094 -11.932  15.338  1.00  0.00     0.070 C 
ATOM      5  S   1LT A1102      -1.017  -8.868  16.918  1.00  0.00    -0.051 SA
ATOM      6  N   1LT A1102      -1.445 -10.191  14.746  1.00  0.00    -0.339 N 
ATOM      7  HN  1LT A1102      -1.403 -10.498  13.774  1.00  0.00     0.168 HD
ENDROOT
BRANCH   2   8
ATOM      8  N1  1LT A1102       0.115  -8.479  14.443  1.00  0.00    -0.289 N 
ATOM      9  C3  1LT A1102       0.142  -8.545  13.042  1.00  0.00     0.325 C 
ATOM     10  N2  1LT A1102       1.084  -7.775  12.388  1.00  0.00    -0.320 N 
ATOM     11  O   1LT A1102      -0.633  -9.253  12.417  1.00  0.00    -0.247 OA
ATOM     12  C4  1LT A1102       2.083  -6.876  12.989  1.00  0.00     0.129 C 
ATOM     13  C7  1LT A1102       1.155  -7.790  10.917  1.00  0.00     0.180 C 
ATOM     14  C5  1LT A1102       3.051  -6.614  11.857  1.00  0.00     0.022 C 
ATOM     15  C6  1LT A1102       2.235  -6.747  10.592  1.00  0.00     0.037 C 
ATOM     16  H   1LT A1102       0.760  -7.883  14.887  1.00  0.00     0.172 HD
BRANCH  13  17
ATOM     17  C8  1LT A1102       1.487  -9.166  10.336  1.00  0.00     0.238 C 
ATOM     18  O1  1LT A1102       1.605  -9.314   9.116  1.00  0.00    -0.271 OA
ATOM     19  N3  1LT A1102       1.563 -10.171  11.194  1.00  0.00    -0.368 N 
ATOM     20  H   1LT A1102       1.463 -10.003  12.158  1.00  0.00     0.159 HD
ATOM     21  H   1LT A1102       1.720 -11.086  10.867  1.00  0.00     0.159 HD
ENDBRANCH  13  17
ENDBRANCH   2   8
BRANCH   3  22
ATOM     22  C10 1LT A1102      -2.772 -10.481  18.296  1.00  0.00    -0.014 A 
ATOM     23  C11 1LT A1102      -3.877 -11.318  18.404  1.00  0.00     0.030 A 
ATOM     24  C12 1LT A1102      -4.433 -11.519  19.648  1.00  0.00     0.089 A 
ATOM     25  N4  1LT A1102      -3.957 -10.970  20.775  1.00  0.00    -0.368 N 
ATOM     26  C13 1LT A1102      -2.866 -10.198  20.676  1.00  0.00     0.026 A 
ATOM     27  H4  1LT A1102      -4.409 -11.134  21.675  1.00  0.00     0.165 HD
ATOM     28  C14 1LT A1102      -2.242  -9.918  19.452  1.00  0.00     0.039 A 
BRANCH  26  29
ATOM     29  C15 1LT A1102      -2.292  -9.661  22.010  1.00  0.00     0.092 C 
ATOM     30  C16 1LT A1102      -1.710 -10.799  22.864  1.00  0.00     0.031 C 
ATOM     31  C17 1LT A1102      -1.201  -8.611  21.733  1.00  0.00     0.031 C 
BRANCH  29  32
ATOM     32  C18 1LT A1102      -3.472  -8.951  22.884  1.00  0.00     0.400 C 
ATOM     33  F1  1LT A1102      -4.159  -9.834  23.601  1.00  0.00    -0.170 F 
ATOM     34  F   1LT A1102      -4.357  -8.305  22.134  1.00  0.00    -0.170 F 
ATOM     35  F2  1LT A1102      -2.956  -8.060  23.731  1.00  0.00    -0.170 F 
ENDBRANCH  29  32
ENDBRANCH  26  29
ENDBRANCH   3  22
TORSDOF 5
ENDMDL
MODEL 5
REMARK VINA RESULT:    -6.496      1.996      2.710
REMARK INTER + INTRA:          -8.442
REMARK INTER:                  -7.143
REMARK INTRA:                  -1.300
REMARK UNBOUND:                -0.047
REMARK  5 active torsions:
REMARK  status: ('A' for Active; 'I' for Inactive)
REMARK    1  A    between atoms: C2_2  and  N1_24 
REMARK       I    between atoms: C3_3  and  N2_26 
REMARK       I    between atoms: C3_3  and  N1_24 
REMARK    2  A    between atoms: C13_7  and  C15_9 
REMARK    3  A    between atoms: C15_9  and  C18_12 
REMARK    4  A    between atoms: C10_18  and  C9_19 
REMARK    5  A    between atoms: C7_27  and  C8_28 
REMARK       I    between atoms: C8_28  and  N3_29 
ROOT
ATOM      1  C1  1LT A1102      -1.857 -10.524  16.218  1.00  0.00     0.025 A 
ATOM      2  C2  1LT A1102      -0.568  -8.730  16.092  1.00  0.00     0.153 A 
ATOM      3  C9  1LT A1102      -2.097 -10.024  17.494  1.00  0.00     0.041 A 
ATOM      4  C   1LT A1102      -2.434 -11.777  15.644  1.00  0.00     0.070 C 
ATOM      5  S   1LT A1102      -1.201  -8.537  17.687  1.00  0.00    -0.051 SA
ATOM      6  N   1LT A1102      -0.986  -9.786  15.442  1.00  0.00    -0.339 N 
ATOM      7  HN  1LT A1102      -0.707 -10.030  14.491  1.00  0.00     0.168 HD
ENDROOT
BRANCH   2   8
ATOM      8  N1  1LT A1102       0.324  -7.853  15.504  1.00  0.00    -0.289 N 
ATOM      9  C3  1LT A1102       0.406  -7.612  14.125  1.00  0.00     0.325 C 
ATOM     10  N2  1LT A1102       1.363  -6.713  13.694  1.00  0.00    -0.320 N 
ATOM     11  O   1LT A1102      -0.335  -8.170  13.330  1.00  0.00    -0.247 OA
ATOM     12  C4  1LT A1102       2.325  -5.963  14.517  1.00  0.00     0.129 C 
ATOM     13  C7  1LT A1102       1.491  -6.408  12.259  1.00  0.00     0.180 C 
ATOM     14  C5  1LT A1102       3.333  -5.456  13.509  1.00  0.00     0.022 C 
ATOM     15  C6  1LT A1102       2.569  -5.313  12.214  1.00  0.00     0.037 C 
ATOM     16  H   1LT A1102       0.943  -7.365  16.093  1.00  0.00     0.172 HD
BRANCH  13  17
ATOM     17  C8  1LT A1102       1.864  -7.622  11.406  1.00  0.00     0.238 C 
ATOM     18  O1  1LT A1102       3.040  -7.990  11.328  1.00  0.00    -0.271 OA
ATOM     19  N3  1LT A1102       0.885  -8.188  10.720  1.00  0.00    -0.368 N 
ATOM     20  H   1LT A1102      -0.038  -7.860  10.816  1.00  0.00     0.159 HD
ATOM     21  H   1LT A1102       1.079  -8.939  10.113  1.00  0.00     0.159 HD
ENDBRANCH  13  17
ENDBRANCH   2   8
BRANCH   3  22
ATOM     22  C10 1LT A1102      -2.927 -10.459  18.640  1.00  0.00    -0.014 A 
ATOM     23  C11 1LT A1102      -3.969 -11.365  18.478  1.00  0.00     0.030 A 
ATOM     24  C12 1LT A1102      -4.717 -11.716  19.580  1.00  0.00     0.089 A 
ATOM     25  N4  1LT A1102      -4.487 -11.250  20.816  1.00  0.00    -0.368 N 
ATOM     26  C13 1LT A1102      -3.456 -10.409  20.980  1.00  0.00     0.026 A 
ATOM     27  H4  1LT A1102      -5.075 -11.525  21.602  1.00  0.00     0.165 HD
ATOM     28  C14 1LT A1102      -2.650  -9.978  19.916  1.00  0.00     0.039 A 
BRANCH  26  29
ATOM     29  C15 1LT A1102      -3.165  -9.968  22.435  1.00  0.00     0.092 C 
ATOM     30  C16 1LT A1102      -4.115 -10.658  23.426  1.00  0.00     0.031 C 
ATOM     31  C17 1LT A1102      -1.706 -10.291  22.805  1.00  0.00     0.031 C 
BRANCH  29  32
ATOM     32  C18 1LT A1102      -3.385  -8.358  22.589  1.00  0.00     0.400 C 
ATOM     33  F1  1LT A1102      -4.486  -7.947  21.969  1.00  0.00    -0.170 F 
ATOM     34  F   1LT A1102      -2.383  -7.647  22.087  1.00  0.00    -0.170 F 
ATOM     35  F2  1LT A1102      -3.498  -8.022  23.873  1.00  0.00    -0.170 F 
ENDBRANCH  29  32
ENDBRANCH  26  29
ENDBRANCH   3  22
TORSDOF 5
ENDMDL
MODEL 6
REMARK VINA RESULT:    -5.739      2.067      3.309
REMARK INTER + INTRA:          -7.464
REMARK INTER:                  -6.626
REMARK INTRA:                  -0.837
REMARK UNBOUND:                -0.047
REMARK  5 active torsions:
REMARK  status: ('A' for Active; 'I' for Inactive)
REMARK    1  A    between atoms: C2_2  and  N1_24 
REMARK       I    between atoms: C3_3  and  N2_26 
REMARK       I    between atoms: C3_3  and  N1_24 
REMARK    2  A    between atoms: C13_7  and  C15_9 
REMARK    3  A    between atoms: C15_9  and  C18_12 
REMARK    4  A    between atoms: C10_18  and  C9_19 
REMARK    5  A    between atoms: C7_27  and  C8_28 
REMARK       I    between atoms: C8_28  and  N3_29 
ROOT
ATOM      1  C1  1LT A1102      -1.020  -6.477  17.388  1.00  0.00     0.025 A 
ATOM      2  C2  1LT A1102       0.139  -6.963  15.568  1.00  0.00     0.153 A 
ATOM      3  C9  1LT A1102      -1.106  -7.863  17.471  1.00  0.00     0.041 A 
ATOM      4  C   1LT A1102      -1.630  -5.502  18.343  1.00  0.00     0.070 C 
ATOM      5  S   1LT A1102      -0.226  -8.556  16.129  1.00  0.00    -0.051 SA
ATOM      6  N   1LT A1102      -0.320  -5.985  16.305  1.00  0.00    -0.339 N 
ATOM      7  HN  1LT A1102      -0.180  -4.994  16.106  1.00  0.00     0.168 HD
ENDROOT
BRANCH   2   8
ATOM      8  N1  1LT A1102       0.863  -6.697  14.422  1.00  0.00    -0.289 N 
ATOM      9  C3  1LT A1102       0.677  -7.352  13.195  1.00  0.00     0.325 C 
ATOM     10  N2  1LT A1102       1.493  -6.978  12.145  1.00  0.00    -0.320 N 
ATOM     11  O   1LT A1102      -0.172  -8.219  13.053  1.00  0.00    -0.247 OA
ATOM     12  C4  1LT A1102       2.555  -5.960  12.152  1.00  0.00     0.129 C 
ATOM     13  C7  1LT A1102       1.338  -7.620  10.829  1.00  0.00     0.180 C 
ATOM     14  C5  1LT A1102       3.333  -6.250  10.888  1.00  0.00     0.022 C 
ATOM     15  C6  1LT A1102       2.336  -6.867   9.935  1.00  0.00     0.037 C 
ATOM     16  H   1LT A1102       1.558  -6.001  14.469  1.00  0.00     0.172 HD
BRANCH  13  17
ATOM     17  C8  1LT A1102       1.602  -9.127  10.848  1.00  0.00     0.238 C 
ATOM     18  O1  1LT A1102       2.738  -9.562  10.638  1.00  0.00    -0.271 OA
ATOM     19  N3  1LT A1102       0.551  -9.912  11.024  1.00  0.00    -0.368 N 
ATOM     20  H   1LT A1102      -0.336  -9.518  11.188  1.00  0.00     0.159 HD
ATOM     21  H   1LT A1102       0.656 -10.890  10.990  1.00  0.00     0.159 HD
ENDBRANCH  13  17
ENDBRANCH   2   8
BRANCH   3  22
ATOM     22  C10 1LT A1102      -1.732  -8.810  18.420  1.00  0.00    -0.014 A 
ATOM     23  C11 1LT A1102      -2.370  -9.963  17.978  1.00  0.00     0.030 A 
ATOM     24  C12 1LT A1102      -2.950 -10.795  18.910  1.00  0.00     0.089 A 
ATOM     25  N4  1LT A1102      -2.918 -10.570  20.232  1.00  0.00    -0.368 N 
ATOM     26  C13 1LT A1102      -2.267  -9.481  20.661  1.00  0.00     0.026 A 
ATOM     27  H4  1LT A1102      -3.374 -11.206  20.887  1.00  0.00     0.165 HD
ATOM     28  C14 1LT A1102      -1.663  -8.564  19.788  1.00  0.00     0.039 A 
BRANCH  26  29
ATOM     29  C15 1LT A1102      -2.171  -9.307  22.196  1.00  0.00     0.092 C 
ATOM     30  C16 1LT A1102      -2.304  -7.829  22.598  1.00  0.00     0.031 C 
ATOM     31  C17 1LT A1102      -3.266 -10.134  22.893  1.00  0.00     0.031 C 
BRANCH  29  32
ATOM     32  C18 1LT A1102      -0.720  -9.829  22.731  1.00  0.00     0.400 C 
ATOM     33  F1  1LT A1102      -0.420  -9.327  23.923  1.00  0.00    -0.170 F 
ATOM     34  F   1LT A1102       0.280  -9.500  21.921  1.00  0.00    -0.170 F 
ATOM     35  F2  1LT A1102      -0.712 -11.157  22.840  1.00  0.00    -0.170 F 
ENDBRANCH  29  32
ENDBRANCH  26  29
ENDBRANCH   3  22
TORSDOF 5
ENDMDL
MODEL 7
REMARK VINA RESULT:    -5.687      2.243      3.402
REMARK INTER + INTRA:          -7.397
REMARK INTER:                  -6.460
REMARK INTRA:                  -0.937
REMARK UNBOUND:                -0.047
REMARK  5 active torsions:
REMARK  status: ('A' for Active; 'I' for Inactive)
REMARK    1  A    between atoms: C2_2  and  N1_24 
REMARK       I    between atoms: C3_3  and  N2_26 
REMARK       I    between atoms: C3_3  and  N1_24 
REMARK    2  A    between atoms: C13_7  and  C15_9 
REMARK    3  A    between atoms: C15_9  and  C18_12 
REMARK    4  A    between atoms: C10_18  and  C9_19 
REMARK    5  A    between atoms: C7_27  and  C8_28 
REMARK       I    between atoms: C8_28  and  N3_29 
ROOT
ATOM      1  C1  1LT A1102      -1.122  -6.719  17.367  1.00  0.00     0.025 A 
ATOM      2  C2  1LT A1102       0.062  -7.160  15.551  1.00  0.00     0.153 A 
ATOM      3  C9  1LT A1102      -1.214  -8.107  17.410  1.00  0.00     0.041 A 
ATOM      4  C   1LT A1102      -1.742  -5.769  18.339  1.00  0.00     0.070 C 
ATOM      5  S   1LT A1102      -0.316  -8.766  16.063  1.00  0.00    -0.051 SA
ATOM      6  N   1LT A1102      -0.405  -6.200  16.308  1.00  0.00    -0.339 N 
ATOM      7  HN  1LT A1102      -0.258  -5.205  16.139  1.00  0.00     0.168 HD
ENDROOT
BRANCH   2   8
ATOM      8  N1  1LT A1102       0.804  -6.865  14.423  1.00  0.00    -0.289 N 
ATOM      9  C3  1LT A1102       0.649  -7.503  13.183  1.00  0.00     0.325 C 
ATOM     10  N2  1LT A1102       1.480  -7.101  12.155  1.00  0.00    -0.320 N 
ATOM     11  O   1LT A1102      -0.185  -8.379  13.011  1.00  0.00    -0.247 OA
ATOM     12  C4  1LT A1102       2.527  -6.068  12.199  1.00  0.00     0.129 C 
ATOM     13  C7  1LT A1102       1.359  -7.723  10.826  1.00  0.00     0.180 C 
ATOM     14  C5  1LT A1102       3.333  -6.327  10.945  1.00  0.00     0.022 C 
ATOM     15  C6  1LT A1102       2.363  -6.942   9.964  1.00  0.00     0.037 C 
ATOM     16  H   1LT A1102       1.488  -6.161  14.495  1.00  0.00     0.172 HD
BRANCH  13  17
ATOM     17  C8  1LT A1102       1.643  -9.226  10.826  1.00  0.00     0.238 C 
ATOM     18  O1  1LT A1102       2.778  -9.644  10.580  1.00  0.00    -0.271 OA
ATOM     19  N3  1LT A1102       0.609 -10.026  11.025  1.00  0.00    -0.368 N 
ATOM     20  H   1LT A1102      -0.279  -9.646  11.218  1.00  0.00     0.159 HD
ATOM     21  H   1LT A1102       0.726 -11.003  10.981  1.00  0.00     0.159 HD
ENDBRANCH  13  17
ENDBRANCH   2   8
BRANCH   3  22
ATOM     22  C10 1LT A1102      -1.857  -9.077  18.324  1.00  0.00    -0.014 A 
ATOM     23  C11 1LT A1102      -2.592 -10.153  17.838  1.00  0.00     0.030 A 
ATOM     24  C12 1LT A1102      -3.182 -11.010  18.740  1.00  0.00     0.089 A 
ATOM     25  N4  1LT A1102      -3.073 -10.883  20.070  1.00  0.00    -0.368 N 
ATOM     26  C13 1LT A1102      -2.329  -9.871  20.538  1.00  0.00     0.026 A 
ATOM     27  H4  1LT A1102      -3.539 -11.533  20.704  1.00  0.00     0.165 HD
ATOM     28  C14 1LT A1102      -1.706  -8.935  19.700  1.00  0.00     0.039 A 
BRANCH  26  29
ATOM     29  C15 1LT A1102      -2.149  -9.815  22.075  1.00  0.00     0.092 C 
ATOM     30  C16 1LT A1102      -1.287 -10.984  22.578  1.00  0.00     0.031 C 
ATOM     31  C17 1LT A1102      -1.502  -8.480  22.485  1.00  0.00     0.031 C 
BRANCH  29  32
ATOM     32  C18 1LT A1102      -3.600  -9.926  22.814  1.00  0.00     0.400 C 
ATOM     33  F1  1LT A1102      -3.909 -11.182  23.115  1.00  0.00    -0.170 F 
ATOM     34  F   1LT A1102      -4.598  -9.460  22.072  1.00  0.00    -0.170 F 
ATOM     35  F2  1LT A1102      -3.600  -9.229  23.950  1.00  0.00    -0.170 F 
ENDBRANCH  29  32
ENDBRANCH  26  29
ENDBRANCH   3  22
TORSDOF 5
ENDMDL
MODEL 8
REMARK VINA RESULT:    -5.581      2.438      3.572
REMARK INTER + INTRA:          -7.260
REMARK INTER:                  -5.704
REMARK INTRA:                  -1.556
REMARK UNBOUND:                -0.047
REMARK  5 active torsions:
REMARK  status: ('A' for Active; 'I' for Inactive)
REMARK    1  A    between atoms: C2_2  and  N1_24 
REMARK       I    between atoms: C3_3  and  N2_26 
REMARK       I    between atoms: C3_3  and  N1_24 
REMARK    2  A    between atoms: C13_7  and  C15_9 
REMARK    3  A    between atoms: C15_9  and  C18_12 
REMARK    4  A    between atoms: C10_18  and  C9_19 
REMARK    5  A    between atoms: C7_27  and  C8_28 
REMARK       I    between atoms: C8_28  and  N3_29 
ROOT
ATOM      1  C1  1LT A1102      -1.337  -8.442  16.997  1.00  0.00     0.025 A 
ATOM      2  C2  1LT A1102      -0.001  -7.193  15.753  1.00  0.00     0.153 A 
ATOM      3  C9  1LT A1102      -1.178  -7.385  17.888  1.00  0.00     0.041 A 
ATOM      4  C   1LT A1102      -2.144  -9.676  17.237  1.00  0.00     0.070 C 
ATOM      5  S   1LT A1102      -0.153  -6.181  17.144  1.00  0.00    -0.051 SA
ATOM      6  N   1LT A1102      -0.661  -8.321  15.800  1.00  0.00    -0.339 N 
ATOM      7  HN  1LT A1102      -0.675  -9.017  15.053  1.00  0.00     0.168 HD
ENDROOT
BRANCH   2   8
ATOM      8  N1  1LT A1102       0.758  -6.870  14.644  1.00  0.00    -0.289 N 
ATOM      9  C3  1LT A1102       0.610  -7.465  13.382  1.00  0.00     0.325 C 
ATOM     10  N2  1LT A1102       1.457  -7.040  12.376  1.00  0.00    -0.320 N 
ATOM     11  O   1LT A1102      -0.233  -8.324  13.171  1.00  0.00    -0.247 OA
ATOM     12  C4  1LT A1102       2.516  -6.023  12.466  1.00  0.00     0.129 C 
ATOM     13  C7  1LT A1102       1.344  -7.616  11.026  1.00  0.00     0.180 C 
ATOM     14  C5  1LT A1102       3.334  -6.250  11.214  1.00  0.00     0.022 C 
ATOM     15  C6  1LT A1102       2.367  -6.820  10.202  1.00  0.00     0.037 C 
ATOM     16  H   1LT A1102       1.449  -6.177  14.746  1.00  0.00     0.172 HD
BRANCH  13  17
ATOM     17  C8  1LT A1102       1.610  -9.122  10.980  1.00  0.00     0.238 C 
ATOM     18  O1  1LT A1102       2.758  -9.546  10.814  1.00  0.00    -0.271 OA
ATOM     19  N3  1LT A1102       0.553  -9.915  11.051  1.00  0.00    -0.368 N 
ATOM     20  H   1LT A1102      -0.343  -9.530  11.184  1.00  0.00     0.159 HD
ATOM     21  H   1LT A1102       0.662 -10.889  10.971  1.00  0.00     0.159 HD
ENDBRANCH  13  17
ENDBRANCH   2   8
BRANCH   3  22
ATOM     22  C10 1LT A1102      -1.689  -7.083  19.243  1.00  0.00    -0.014 A 
ATOM     23  C11 1LT A1102      -2.223  -5.838  19.555  1.00  0.00     0.030 A 
ATOM     24  C12 1LT A1102      -2.666  -5.612  20.840  1.00  0.00     0.089 A 
ATOM     25  N4  1LT A1102      -2.633  -6.535  21.812  1.00  0.00    -0.368 N 
ATOM     26  C13 1LT A1102      -2.158  -7.749  21.500  1.00  0.00     0.026 A 
ATOM     27  H4  1LT A1102      -2.958  -6.321  22.755  1.00  0.00     0.165 HD
ATOM     28  C14 1LT A1102      -1.666  -8.068  20.226  1.00  0.00     0.039 A 
BRANCH  26  29
ATOM     29  C15 1LT A1102      -2.225  -8.813  22.622  1.00  0.00     0.092 C 
ATOM     30  C16 1LT A1102      -0.888  -9.560  22.761  1.00  0.00     0.031 C 
ATOM     31  C17 1LT A1102      -2.590  -8.150  23.962  1.00  0.00     0.031 C 
BRANCH  29  32
ATOM     32  C18 1LT A1102      -3.369  -9.924  22.275  1.00  0.00     0.400 C 
ATOM     33  F1  1LT A1102      -3.730 -10.618  23.348  1.00  0.00    -0.170 F 
ATOM     34  F   1LT A1102      -2.974 -10.810  21.369  1.00  0.00    -0.170 F 
ATOM     35  F2  1LT A1102      -4.462  -9.334  21.791  1.00  0.00    -0.170 F 
ENDBRANCH  29  32
ENDBRANCH  26  29
ENDBRANCH   3  22
TORSDOF 5
ENDMDL
MODEL 9
REMARK VINA RESULT:    -5.421      1.501      2.009
REMARK INTER + INTRA:          -7.054
REMARK INTER:                  -6.794
REMARK INTRA:                  -0.260
REMARK UNBOUND:                -0.047
REMARK  5 active torsions:
REMARK  status: ('A' for Active; 'I' for Inactive)
REMARK    1  A    between atoms: C2_2  and  N1_24 
REMARK       I    between atoms: C3_3  and  N2_26 
REMARK       I    between atoms: C3_3  and  N1_24 
REMARK    2  A    between atoms: C13_7  and  C15_9 
REMARK    3  A    between atoms: C15_9  and  C18_12 
REMARK    4  A    between atoms: C10_18  and  C9_19 
REMARK    5  A    between atoms: C7_27  and  C8_28 
REMARK       I    between atoms: C8_28  and  N3_29 
ROOT
ATOM      1  C1  1LT A1102      -2.538 -11.113  16.542  1.00  0.00     0.025 A 
ATOM      2  C2  1LT A1102      -1.217  -9.950  15.200  1.00  0.00     0.153 A 
ATOM      3  C9  1LT A1102      -2.103 -10.172  17.469  1.00  0.00     0.041 A 
ATOM      4  C   1LT A1102      -3.476 -12.244  16.814  1.00  0.00     0.070 C 
ATOM      5  S   1LT A1102      -1.025  -9.056  16.666  1.00  0.00    -0.051 SA
ATOM      6  N   1LT A1102      -2.024 -10.979  15.268  1.00  0.00    -0.339 N 
ATOM      7  HN  1LT A1102      -2.242 -11.596  14.486  1.00  0.00     0.168 HD
ENDROOT
BRANCH   2   8
ATOM      8  N1  1LT A1102      -0.580  -9.636  14.015  1.00  0.00    -0.289 N 
ATOM      9  C3  1LT A1102       0.236  -8.510  13.829  1.00  0.00     0.325 C 
ATOM     10  N2  1LT A1102       0.791  -8.329  12.576  1.00  0.00    -0.320 N 
ATOM     11  O   1LT A1102       0.452  -7.716  14.732  1.00  0.00    -0.247 OA
ATOM     12  C4  1LT A1102       0.630  -9.186  11.391  1.00  0.00     0.129 C 
ATOM     13  C7  1LT A1102       1.667  -7.174  12.320  1.00  0.00     0.180 C 
ATOM     14  C5  1LT A1102       1.129  -8.319  10.256  1.00  0.00     0.022 C 
ATOM     15  C6  1LT A1102       2.148  -7.393  10.877  1.00  0.00     0.037 C 
ATOM     16  H   1LT A1102      -0.708 -10.242  13.251  1.00  0.00     0.172 HD
BRANCH  13  17
ATOM     17  C8  1LT A1102       0.968  -5.825  12.498  1.00  0.00     0.238 C 
ATOM     18  O1  1LT A1102       1.631  -4.790  12.613  1.00  0.00    -0.271 OA
ATOM     19  N3  1LT A1102      -0.352  -5.848  12.593  1.00  0.00    -0.368 N 
ATOM     20  H   1LT A1102      -0.838  -6.698  12.493  1.00  0.00     0.159 HD
ATOM     21  H   1LT A1102      -0.848  -5.015  12.762  1.00  0.00     0.159 HD
ENDBRANCH  13  17
ENDBRANCH   2   8
BRANCH   3  22
ATOM     22  C10 1LT A1102      -2.372  -9.926  18.903  1.00  0.00    -0.014 A 
ATOM     23  C11 1LT A1102      -2.645 -10.972  19.779  1.00  0.00     0.030 A 
ATOM     24  C12 1LT A1102      -2.907 -10.676  21.099  1.00  0.00     0.089 A 
ATOM     25  N4  1LT A1102      -2.893  -9.433  21.601  1.00  0.00    -0.368 N 
ATOM     26  C13 1LT A1102      -2.588  -8.430  20.767  1.00  0.00     0.026 A 
ATOM     27  H4  1LT A1102      -3.106  -9.258  22.583  1.00  0.00     0.165 HD
ATOM     28  C14 1LT A1102      -2.327  -8.628  19.403  1.00  0.00     0.039 A 
BRANCH  26  29
ATOM     29  C15 1LT A1102      -2.489  -7.023  21.404  1.00  0.00     0.092 C 
ATOM     30  C16 1LT A1102      -2.994  -5.938  20.440  1.00  0.00     0.031 C 
ATOM     31  C17 1LT A1102      -3.301  -6.974  22.711  1.00  0.00     0.031 C 
BRANCH  29  32
ATOM     32  C18 1LT A1102      -0.934  -6.675  21.757  1.00  0.00     0.400 C 
ATOM     33  F1  1LT A1102      -0.834  -5.694  22.647  1.00  0.00    -0.170 F 
ATOM     34  F   1LT A1102      -0.234  -6.293  20.696  1.00  0.00    -0.170 F 
ATOM     35  F2  1LT A1102      -0.320  -7.742  22.266  1.00  0.00    -0.170 F 
ENDBRANCH  29  32
ENDBRANCH  26  29
ENDBRANCH   3  22
TORSDOF 5
ENDMDL
MODEL 10
REMARK VINA RESULT:    -5.402      2.517      3.717
REMARK INTER + INTRA:          -7.029
REMARK INTER:                  -5.687
REMARK INTRA:                  -1.342
REMARK UNBOUND:                -0.047
REMARK  5 active torsions:
REMARK  status: ('A' for Active; 'I' for Inactive)
REMARK    1  A    between atoms: C2_2  and  N1_24 
REMARK       I    between atoms: C3_3  and  N2_26 
REMARK       I    between atoms: C3_3  and  N1_24 
REMARK    2  A    between atoms: C13_7  and  C15_9 
REMARK    3  A    between atoms: C15_9  and  C18_12 
REMARK    4  A    between atoms: C10_18  and  C9_19 
REMARK    5  A    between atoms: C7_27  and  C8_28 
REMARK       I    between atoms: C8_28  and  N3_29 
ROOT
ATOM      1  C1  1LT A1102      -1.136  -8.154  16.950  1.00  0.00     0.025 A 
ATOM      2  C2  1LT A1102       0.088  -6.945  15.559  1.00  0.00     0.153 A 
ATOM      3  C9  1LT A1102      -1.088  -6.984  17.703  1.00  0.00     0.041 A 
ATOM      4  C   1LT A1102      -1.823  -9.421  17.343  1.00  0.00     0.070 C 
ATOM      5  S   1LT A1102      -0.175  -5.788  16.814  1.00  0.00    -0.051 SA
ATOM      6  N   1LT A1102      -0.461  -8.117  15.747  1.00  0.00    -0.339 N 
ATOM      7  HN  1LT A1102      -0.400  -8.898  15.092  1.00  0.00     0.168 HD
ENDROOT
BRANCH   2   8
ATOM      8  N1  1LT A1102       0.824  -6.690  14.418  1.00  0.00    -0.289 N 
ATOM      9  C3  1LT A1102       0.657  -7.364  13.199  1.00  0.00     0.325 C 
ATOM     10  N2  1LT A1102       1.483  -7.000  12.153  1.00  0.00    -0.320 N 
ATOM     11  O   1LT A1102      -0.185  -8.239  13.059  1.00  0.00    -0.247 OA
ATOM     12  C4  1LT A1102       2.538  -5.975  12.158  1.00  0.00     0.129 C 
ATOM     13  C7  1LT A1102       1.348  -7.662  10.845  1.00  0.00     0.180 C 
ATOM     14  C5  1LT A1102       3.333  -6.278  10.908  1.00  0.00     0.022 C 
ATOM     15  C6  1LT A1102       2.351  -6.915   9.952  1.00  0.00     0.037 C 
ATOM     16  H   1LT A1102       1.513  -5.989  14.463  1.00  0.00     0.172 HD
BRANCH  13  17
ATOM     17  C8  1LT A1102       1.622  -9.167  10.889  1.00  0.00     0.238 C 
ATOM     18  O1  1LT A1102       2.769  -9.595  10.731  1.00  0.00    -0.271 OA
ATOM     19  N3  1LT A1102       0.571  -9.958  11.028  1.00  0.00    -0.368 N 
ATOM     20  H   1LT A1102      -0.325  -9.569  11.151  1.00  0.00     0.159 HD
ATOM     21  H   1LT A1102       0.684 -10.935  11.008  1.00  0.00     0.159 HD
ENDBRANCH  13  17
ENDBRANCH   2   8
BRANCH   3  22
ATOM     22  C10 1LT A1102      -1.641  -6.568  19.011  1.00  0.00    -0.014 A 
ATOM     23  C11 1LT A1102      -2.202  -5.309  19.192  1.00  0.00     0.030 A 
ATOM     24  C12 1LT A1102      -2.683  -4.974  20.439  1.00  0.00     0.089 A 
ATOM     25  N4  1LT A1102      -2.663  -5.803  21.493  1.00  0.00    -0.368 N 
ATOM     26  C13 1LT A1102      -2.161  -7.031  21.307  1.00  0.00     0.026 A 
ATOM     27  H4  1LT A1102      -3.017  -5.509  22.403  1.00  0.00     0.165 HD
ATOM     28  C14 1LT A1102      -1.629  -7.457  20.081  1.00  0.00     0.039 A 
BRANCH  26  29
ATOM     29  C15 1LT A1102      -2.242  -7.989  22.520  1.00  0.00     0.092 C 
ATOM     30  C16 1LT A1102      -2.652  -7.236  23.797  1.00  0.00     0.031 C 
ATOM     31  C17 1LT A1102      -3.249  -9.118  22.239  1.00  0.00     0.031 C 
BRANCH  29  32
ATOM     32  C18 1LT A1102      -0.783  -8.664  22.801  1.00  0.00     0.400 C 
ATOM     33  F1  1LT A1102      -0.654  -9.062  24.062  1.00  0.00    -0.170 F 
ATOM     34  F   1LT A1102       0.227  -7.836  22.563  1.00  0.00    -0.170 F 
ATOM     35  F2  1LT A1102      -0.605  -9.731  22.023  1.00  0.00    -0.170 F 
ENDBRANCH  29  32
ENDBRANCH  26  29
ENDBRANCH   3  22
TORSDOF 5
ENDMDL
MODEL 11
REMARK VINA RESULT:    -5.236      3.258      4.150
REMARK INTER + INTRA:          -6.813
REMARK INTER:                  -5.375
REMARK INTRA:                  -1.438
REMARK UNBOUND:                -0.047
REMARK  5 active torsions:
REMARK  status: ('A' for Active; 'I' for Inactive)
REMARK    1  A    between atoms: C2_2  and  N1_24 
REMARK       I    between atoms: C3_3  and  N2_26 
REMARK       I    between atoms: C3_3  and  N1_24 
REMARK    2  A    between atoms: C13_7  and  C15_9 
REMARK    3  A    between atoms: C15_9  and  C18_12 
REMARK    4  A    between atoms: C10_18  and  C9_19 
REMARK    5  A    between atoms: C7_27  and  C8_28 
REMARK       I    between atoms: C8_28  and  N3_29 
ROOT
ATOM      1  C1  1LT A1102      -1.943  -9.387  18.028  1.00  0.00     0.025 A 
ATOM      2  C2  1LT A1102      -0.490  -8.008  17.090  1.00  0.00     0.153 A 
ATOM      3  C9  1LT A1102      -1.832  -8.482  19.079  1.00  0.00     0.041 A 
ATOM      4  C   1LT A1102      -2.791 -10.618  18.018  1.00  0.00     0.070 C 
ATOM      5  S   1LT A1102      -0.729  -7.212  18.605  1.00  0.00    -0.051 SA
ATOM      6  N   1LT A1102      -1.175  -9.109  16.916  1.00  0.00    -0.339 N 
ATOM      7  HN  1LT A1102      -1.145  -9.684  16.074  1.00  0.00     0.168 HD
ENDROOT
BRANCH   2   8
ATOM      8  N1  1LT A1102       0.358  -7.547  16.101  1.00  0.00    -0.289 N 
ATOM      9  C3  1LT A1102       0.105  -7.653  14.726  1.00  0.00     0.325 C 
ATOM     10  N2  1LT A1102       1.061  -7.152  13.863  1.00  0.00    -0.320 N 
ATOM     11  O   1LT A1102      -0.919  -8.165  14.299  1.00  0.00    -0.247 OA
ATOM     12  C4  1LT A1102       2.338  -6.511  14.215  1.00  0.00     0.129 C 
ATOM     13  C7  1LT A1102       0.848  -7.222  12.408  1.00  0.00     0.180 C 
ATOM     14  C5  1LT A1102       3.110  -6.521  12.914  1.00  0.00     0.022 C 
ATOM     15  C6  1LT A1102       2.063  -6.483  11.825  1.00  0.00     0.037 C 
ATOM     16  H   1LT A1102       1.197  -7.115  16.382  1.00  0.00     0.172 HD
BRANCH  13  17
ATOM     17  C8  1LT A1102       0.731  -8.651  11.875  1.00  0.00     0.238 C 
ATOM     18  O1  1LT A1102       1.742  -9.272  11.531  1.00  0.00    -0.271 OA
ATOM     19  N3  1LT A1102      -0.492  -9.137  11.740  1.00  0.00    -0.368 N 
ATOM     20  H   1LT A1102      -1.268  -8.604  12.030  1.00  0.00     0.159 HD
ATOM     21  H   1LT A1102      -0.627 -10.030  11.351  1.00  0.00     0.159 HD
ENDBRANCH  13  17
ENDBRANCH   2   8
BRANCH   3  22
ATOM     22  C10 1LT A1102      -2.441  -8.371  20.423  1.00  0.00    -0.014 A 
ATOM     23  C11 1LT A1102      -2.703  -9.498  21.195  1.00  0.00     0.030 A 
ATOM     24  C12 1LT A1102      -3.288  -9.330  22.430  1.00  0.00     0.089 A 
ATOM     25  N4  1LT A1102      -3.604  -8.135  22.949  1.00  0.00    -0.368 N 
ATOM     26  C13 1LT A1102      -3.312  -7.046  22.224  1.00  0.00     0.026 A 
ATOM     27  H4  1LT A1102      -4.050  -8.056  23.863  1.00  0.00     0.165 HD
ATOM     28  C14 1LT A1102      -2.735  -7.116  20.948  1.00  0.00     0.039 A 
BRANCH  26  29
ATOM     29  C15 1LT A1102      -3.604  -5.683  22.898  1.00  0.00     0.092 C 
ATOM     30  C16 1LT A1102      -3.940  -5.859  24.387  1.00  0.00     0.031 C 
ATOM     31  C17 1LT A1102      -2.392  -4.747  22.748  1.00  0.00     0.031 C 
BRANCH  29  32
ATOM     32  C18 1LT A1102      -4.889  -4.971  22.189  1.00  0.00     0.400 C 
ATOM     33  F1  1LT A1102      -5.649  -5.847  21.542  1.00  0.00    -0.170 F 
ATOM     34  F   1LT A1102      -4.545  -4.044  21.302  1.00  0.00    -0.170 F 
ATOM     35  F2  1LT A1102      -5.654  -4.372  23.101  1.00  0.00    -0.170 F 
ENDBRANCH  29  32
ENDBRANCH  26  29
ENDBRANCH   3  22
TORSDOF 5
ENDMDL
MODEL 12
REMARK VINA RESULT:    -5.137      2.379      4.228
REMARK INTER + INTRA:          -6.686
REMARK INTER:                  -5.773
REMARK INTRA:                  -0.912
REMARK UNBOUND:                -0.047
REMARK  5 active torsions:
REMARK  status: ('A' for Active; 'I' for Inactive)
REMARK    1  A    between atoms: C2_2  and  N1_24 
REMARK       I    between atoms: C3_3  and  N2_26 
REMARK       I    between atoms: C3_3  and  N1_24 
REMARK    2  A    between atoms: C13_7  and  C15_9 
REMARK    3  A    between atoms: C15_9  and  C18_12 
REMARK    4  A    between atoms: C10_18  and  C9_19 
REMARK    5  A    between atoms: C7_27  and  C8_28 
REMARK       I    between atoms: C8_28  and  N3_29 
ROOT
ATOM      1  C1  1LT A1102       0.106  -5.177  18.532  1.00  0.00     0.025 A 
ATOM      2  C2  1LT A1102       0.640  -6.196  16.643  1.00  0.00     0.153 A 
ATOM      3  C9  1LT A1102      -0.705  -6.297  18.683  1.00  0.00     0.041 A 
ATOM      4  C   1LT A1102       0.212  -4.036  19.492  1.00  0.00     0.070 C 
ATOM      5  S   1LT A1102      -0.470  -7.344  17.304  1.00  0.00    -0.051 SA
ATOM      6  N   1LT A1102       0.853  -5.131  17.373  1.00  0.00    -0.339 N 
ATOM      7  HN  1LT A1102       1.485  -4.372  17.119  1.00  0.00     0.168 HD
ENDROOT
BRANCH   2   8
ATOM      8  N1  1LT A1102       1.280  -6.354  15.429  1.00  0.00    -0.289 N 
ATOM      9  C3  1LT A1102       0.681  -6.895  14.281  1.00  0.00     0.325 C 
ATOM     10  N2  1LT A1102       1.462  -6.997  13.146  1.00  0.00    -0.320 N 
ATOM     11  O   1LT A1102      -0.484  -7.263  14.277  1.00  0.00    -0.247 OA
ATOM     12  C4  1LT A1102       2.870  -6.603  12.987  1.00  0.00     0.129 C 
ATOM     13  C7  1LT A1102       0.888  -7.545  11.906  1.00  0.00     0.180 C 
ATOM     14  C5  1LT A1102       3.286  -7.280  11.700  1.00  0.00     0.022 C 
ATOM     15  C6  1LT A1102       2.022  -7.393  10.880  1.00  0.00     0.037 C 
ATOM     16  H   1LT A1102       2.219  -6.067  15.364  1.00  0.00     0.172 HD
BRANCH  13  17
ATOM     17  C8  1LT A1102       0.419  -8.996  12.037  1.00  0.00     0.238 C 
ATOM     18  O1  1LT A1102       1.187  -9.924  11.770  1.00  0.00    -0.271 OA
ATOM     19  N3  1LT A1102      -0.847  -9.182  12.373  1.00  0.00    -0.368 N 
ATOM     20  H   1LT A1102      -1.422  -8.409  12.578  1.00  0.00     0.159 HD
ATOM     21  H   1LT A1102      -1.215 -10.094  12.419  1.00  0.00     0.159 HD
ENDBRANCH  13  17
ENDBRANCH   2   8
BRANCH   3  22
ATOM     22  C10 1LT A1102      -1.648  -6.764  19.724  1.00  0.00    -0.014 A 
ATOM     23  C11 1LT A1102      -2.503  -5.881  20.375  1.00  0.00     0.030 A 
ATOM     24  C12 1LT A1102      -3.345  -6.374  21.348  1.00  0.00     0.089 A 
ATOM     25  N4  1LT A1102      -3.406  -7.668  21.694  1.00  0.00    -0.368 N 
ATOM     26  C13 1LT A1102      -2.612  -8.525  21.038  1.00  0.00     0.026 A 
ATOM     27  H4  1LT A1102      -4.034  -7.988  22.431  1.00  0.00     0.165 HD
ATOM     28  C14 1LT A1102      -1.708  -8.116  20.047  1.00  0.00     0.039 A 
BRANCH  26  29
ATOM     29  C15 1LT A1102      -2.781 -10.020  21.400  1.00  0.00     0.092 C 
ATOM     30  C16 1LT A1102      -4.165 -10.292  22.013  1.00  0.00     0.031 C 
ATOM     31  C17 1LT A1102      -2.589 -10.894  20.148  1.00  0.00     0.031 C 
BRANCH  29  32
ATOM     32  C18 1LT A1102      -1.664 -10.460  22.505  1.00  0.00     0.400 C 
ATOM     33  F1  1LT A1102      -2.139 -11.358  23.361  1.00  0.00    -0.170 F 
ATOM     34  F   1LT A1102      -1.226  -9.440  23.234  1.00  0.00    -0.170 F 
ATOM     35  F2  1LT A1102      -0.601 -10.996  21.908  1.00  0.00    -0.170 F 
ENDBRANCH  29  32
ENDBRANCH  26  29
ENDBRANCH   3  22
TORSDOF 5
ENDMDL
MODEL 13
REMARK VINA RESULT:    -5.107      4.454      9.530
REMARK INTER + INTRA:          -6.647
REMARK INTER:                  -5.901
REMARK INTRA:                  -0.746
REMARK UNBOUND:                -0.047
REMARK  5 active torsions:
REMARK  status: ('A' for Active; 'I' for Inactive)
REMARK    1  A    between atoms: C2_2  and  N1_24 
REMARK       I    between atoms: C3_3  and  N2_26 
REMARK       I    between atoms: C3_3  and  N1_24 
REMARK    2  A    between atoms: C13_7  and  C15_9 
REMARK    3  A    between atoms: C15_9  and  C18_12 
REMARK    4  A    between atoms: C10_18  and  C9_19 
REMARK    5  A    between atoms: C7_27  and  C8_28 
REMARK       I    between atoms: C8_28  and  N3_29 
ROOT
ATOM      1  C1  1LT A1102      -0.770  -6.299  17.025  1.00  0.00     0.025 A 
ATOM      2  C2  1LT A1102      -1.602  -8.232  17.705  1.00  0.00     0.153 A 
ATOM      3  C9  1LT A1102      -0.014  -7.132  16.206  1.00  0.00     0.041 A 
ATOM      4  C   1LT A1102      -0.684  -4.808  17.077  1.00  0.00     0.070 C 
ATOM      5  S   1LT A1102      -0.486  -8.787  16.509  1.00  0.00    -0.051 SA
ATOM      6  N   1LT A1102      -1.656  -6.936  17.870  1.00  0.00    -0.339 N 
ATOM      7  HN  1LT A1102      -2.270  -6.460  18.532  1.00  0.00     0.168 HD
ENDROOT
BRANCH   2   8
ATOM      8  N1  1LT A1102      -2.402  -9.069  18.461  1.00  0.00    -0.289 N 
ATOM      9  C3  1LT A1102      -2.581  -8.955  19.847  1.00  0.00     0.325 C 
ATOM     10  N2  1LT A1102      -3.405  -9.881  20.459  1.00  0.00    -0.320 N 
ATOM     11  O   1LT A1102      -2.035  -8.075  20.496  1.00  0.00    -0.247 OA
ATOM     12  C4  1LT A1102      -4.131 -10.993  19.825  1.00  0.00     0.129 C 
ATOM     13  C7  1LT A1102      -3.644  -9.807  21.910  1.00  0.00     0.180 C 
ATOM     14  C5  1LT A1102      -4.537 -11.863  20.994  1.00  0.00     0.022 C 
ATOM     15  C6  1LT A1102      -4.671 -10.921  22.168  1.00  0.00     0.037 C 
ATOM     16  H   1LT A1102      -2.877  -9.794  17.994  1.00  0.00     0.172 HD
BRANCH  13  17
ATOM     17  C8  1LT A1102      -2.376  -9.985  22.748  1.00  0.00     0.238 C 
ATOM     18  O1  1LT A1102      -1.894 -11.108  22.917  1.00  0.00    -0.271 OA
ATOM     19  N3  1LT A1102      -1.889  -8.898  23.325  1.00  0.00    -0.368 N 
ATOM     20  H   1LT A1102      -2.308  -8.023  23.160  1.00  0.00     0.159 HD
ATOM     21  H   1LT A1102      -1.107  -8.964  23.919  1.00  0.00     0.159 HD
ENDBRANCH  13  17
ENDBRANCH   2   8
BRANCH   3  22
ATOM     22  C10 1LT A1102       1.026  -6.910  15.177  1.00  0.00    -0.014 A 
ATOM     23  C11 1LT A1102       2.173  -6.175  15.454  1.00  0.00     0.030 A 
ATOM     24  C12 1LT A1102       3.096  -5.988  14.448  1.00  0.00     0.089 A 
ATOM     25  N4  1LT A1102       2.965  -6.495  13.213  1.00  0.00    -0.368 N 
ATOM     26  C13 1LT A1102       1.880  -7.239  12.959  1.00  0.00     0.026 A 
ATOM     27  H4  1LT A1102       3.666  -6.320  12.493  1.00  0.00     0.165 HD
ATOM     28  C14 1LT A1102       0.876  -7.468  13.912  1.00  0.00     0.039 A 
BRANCH  26  29
ATOM     29  C15 1LT A1102       1.813  -7.884  11.554  1.00  0.00     0.092 C 
ATOM     30  C16 1LT A1102       1.423  -6.849  10.485  1.00  0.00     0.031 C 
ATOM     31  C17 1LT A1102       3.169  -8.515  11.194  1.00  0.00     0.031 C 
BRANCH  29  32
ATOM     32  C18 1LT A1102       0.681  -9.059  11.529  1.00  0.00     0.400 C 
ATOM     33  F1  1LT A1102      -0.370  -8.753  12.281  1.00  0.00    -0.170 F 
ATOM     34  F   1LT A1102       1.134 -10.225  11.973  1.00  0.00    -0.170 F 
ATOM     35  F2  1LT A1102       0.242  -9.259  10.287  1.00  0.00    -0.170 F 
ENDBRANCH  29  32
ENDBRANCH  26  29
ENDBRANCH   3  22
TORSDOF 5
ENDMDL
MODEL 14
REMARK VINA RESULT:    -5.031      2.612      4.290
REMARK INTER + INTRA:          -6.549
REMARK INTER:                  -5.537
REMARK INTRA:                  -1.012
REMARK UNBOUND:                -0.047
REMARK  5 active torsions:
REMARK  status: ('A' for Active; 'I' for Inactive)
REMARK    1  A    between atoms: C2_2  and  N1_24 
REMARK       I    between atoms: C3_3  and  N2_26 
REMARK       I    between atoms: C3_3  and  N1_24 
REMARK    2  A    between atoms: C13_7  and  C15_9 
REMARK    3  A    between atoms: C15_9  and  C18_12 
REMARK    4  A    between atoms: C10_18  and  C9_19 
REMARK    5  A    between atoms: C7_27  and  C8_28 
REMARK       I    between atoms: C8_28  and  N3_29 
ROOT
ATOM      1  C1  1LT A1102      -0.951  -5.183  17.645  1.00  0.00     0.025 A 
ATOM      2  C2  1LT A1102       0.361  -6.153  16.151  1.00  0.00     0.153 A 
ATOM      3  C9  1LT A1102      -0.771  -6.394  18.306  1.00  0.00     0.041 A 
ATOM      4  C   1LT A1102      -1.780  -4.037  18.127  1.00  0.00     0.070 C 
ATOM      5  S   1LT A1102       0.286  -7.401  17.344  1.00  0.00    -0.051 SA
ATOM      6  N   1LT A1102      -0.312  -5.066  16.428  1.00  0.00    -0.339 N 
ATOM      7  HN  1LT A1102      -0.357  -4.243  15.826  1.00  0.00     0.168 HD
ENDROOT
BRANCH   2   8
ATOM      8  N1  1LT A1102       1.071  -6.257  14.970  1.00  0.00    -0.289 N 
ATOM      9  C3  1LT A1102       0.567  -6.822  13.789  1.00  0.00     0.325 C 
ATOM     10  N2  1LT A1102       1.410  -6.864  12.695  1.00  0.00    -0.320 N 
ATOM     11  O   1LT A1102      -0.571  -7.262  13.722  1.00  0.00    -0.247 OA
ATOM     12  C4  1LT A1102       2.797  -6.380  12.613  1.00  0.00     0.129 C 
ATOM     13  C7  1LT A1102       0.935  -7.433  11.423  1.00  0.00     0.180 C 
ATOM     14  C5  1LT A1102       3.319  -7.017  11.343  1.00  0.00     0.022 C 
ATOM     15  C6  1LT A1102       2.109  -7.199  10.458  1.00  0.00     0.037 C 
ATOM     16  H   1LT A1102       1.992  -5.912  14.957  1.00  0.00     0.172 HD
BRANCH  13  17
ATOM     17  C8  1LT A1102       0.552  -8.911  11.519  1.00  0.00     0.238 C 
ATOM     18  O1  1LT A1102       1.356  -9.785  11.181  1.00  0.00    -0.271 OA
ATOM     19  N3  1LT A1102      -0.684  -9.180  11.905  1.00  0.00    -0.368 N 
ATOM     20  H   1LT A1102      -1.289  -8.448  12.165  1.00  0.00     0.159 HD
ATOM     21  H   1LT A1102      -1.000 -10.112  11.932  1.00  0.00     0.159 HD
ENDBRANCH  13  17
ENDBRANCH   2   8
BRANCH   3  22
ATOM     22  C10 1LT A1102      -1.244  -6.957  19.590  1.00  0.00    -0.014 A 
ATOM     23  C11 1LT A1102      -1.294  -6.184  20.745  1.00  0.00     0.030 A 
ATOM     24  C12 1LT A1102      -1.726  -6.771  21.914  1.00  0.00     0.089 A 
ATOM     25  N4  1LT A1102      -2.125  -8.048  22.003  1.00  0.00    -0.368 N 
ATOM     26  C13 1LT A1102      -2.117  -8.781  20.881  1.00  0.00     0.026 A 
ATOM     27  H4  1LT A1102      -2.424  -8.447  22.893  1.00  0.00     0.165 HD
ATOM     28  C14 1LT A1102      -1.676  -8.278  19.649  1.00  0.00     0.039 A 
BRANCH  26  29
ATOM     29  C15 1LT A1102      -2.674 -10.220  21.006  1.00  0.00     0.092 C 
ATOM     30  C16 1LT A1102      -2.702 -10.926  19.641  1.00  0.00     0.031 C 
ATOM     31  C17 1LT A1102      -1.822 -11.035  21.995  1.00  0.00     0.031 C 
BRANCH  29  32
ATOM     32  C18 1LT A1102      -4.207 -10.181  21.566  1.00  0.00     0.400 C 
ATOM     33  F1  1LT A1102      -4.275 -10.512  22.850  1.00  0.00    -0.170 F 
ATOM     34  F   1LT A1102      -5.016 -11.013  20.920  1.00  0.00    -0.170 F 
ATOM     35  F2  1LT A1102      -4.721  -8.959  21.437  1.00  0.00    -0.170 F 
ENDBRANCH  29  32
ENDBRANCH  26  29
ENDBRANCH   3  22
TORSDOF 5
ENDMDL
