MODEL 1
REMARK VINA RESULT:    -6.242      0.000      0.000
REMARK INTER + INTRA:          -8.785
REMARK INTER:                  -8.249
REMARK INTRA:                  -0.537
REMARK UNBOUND:                -0.537
REMARK  6 active torsions:
REMARK  status: ('A' for Active; 'I' for Inactive)
REMARK    1  A    between atoms: C4_1  and  C1_10 
REMARK    2  A    between atoms: C4_1  and  O8_8 
REMARK    3  A    between atoms: C6_2  and  C2_15 
REMARK    4  A    between atoms: C6_2  and  N10_16 
REMARK    5  A    between atoms: C7_3  and  C11_12 
REMARK    6  A    between atoms: C12_7  and  O8_8 
ROOT
ATOM      1  C7  BOQ S1101     183.703 120.606 277.114  1.00  0.00     0.062 A 
ATOM      2  C1  BOQ S1101     182.995 120.766 279.124  1.00  0.00     0.073 A 
ATOM      3  C3  BOQ S1101     182.659 120.329 277.906  1.00  0.00     0.053 A 
ATOM      4  O5  BOQ S1101     184.695 121.225 277.811  1.00  0.00    -0.316 OA
ATOM      5  C2  BOQ S1101     184.258 121.338 279.082  1.00  0.00     0.097 A 
ENDROOT
BRANCH   2   6
ATOM      6  C4  BOQ S1101     182.133 120.678 280.383  1.00  0.00     0.295 C 
ATOM      7  O9  BOQ S1101     182.511 121.163 281.455  1.00  0.00    -0.259 OA
BRANCH   6   8
ATOM      8  O8  BOQ S1101     180.915 120.103 280.303  1.00  0.00    -0.318 OA
BRANCH   8   9
ATOM      9  C12 BOQ S1101     180.902 118.795 280.868  1.00  0.00     0.174 C 
ATOM     10  C16 BOQ S1101     180.169 118.926 282.193  1.00  0.00     0.034 C 
ENDBRANCH   8   9
ENDBRANCH   6   8
ENDBRANCH   2   6
BRANCH   5  11
ATOM     11  C6  BOQ S1101     185.123 121.990 280.173  1.00  0.00     0.332 C 
BRANCH  11  12
ATOM     12  N10 BOQ S1101     184.521 123.240 280.638  1.00  0.00     0.084 N 
ATOM     13  H   BOQ S1101     185.176 124.008 280.493  1.00  0.00     0.313 HD
ATOM     14  H   BOQ S1101     183.664 123.421 280.115  1.00  0.00     0.313 HD
ENDBRANCH  11  12
ENDBRANCH   5  11
BRANCH   1  15
ATOM     15  C11 BOQ S1101     183.864 120.334 275.615  1.00  0.00    -0.002 C 
ATOM     16  C13 BOQ S1101     184.826 119.165 275.381  1.00  0.00     0.021 C 
ATOM     17  C15 BOQ S1101     182.476 119.954 275.085  1.00  0.00     0.021 C 
ATOM     18  C14 BOQ S1101     184.351 121.599 274.896  1.00  0.00     0.021 C 
ENDBRANCH   1  15
TORSDOF 6
ENDMDL
MODEL 2
REMARK VINA RESULT:    -6.241      0.358      1.210
REMARK INTER + INTRA:          -8.784
REMARK INTER:                  -8.090
REMARK INTRA:                  -0.694
REMARK UNBOUND:                -0.537
REMARK  6 active torsions:
REMARK  status: ('A' for Active; 'I' for Inactive)
REMARK    1  A    between atoms: C4_1  and  C1_10 
REMARK    2  A    between atoms: C4_1  and  O8_8 
REMARK    3  A    between atoms: C6_2  and  C2_15 
REMARK    4  A    between atoms: C6_2  and  N10_16 
REMARK    5  A    between atoms: C7_3  and  C11_12 
REMARK    6  A    between atoms: C12_7  and  O8_8 
ROOT
ATOM      1  C7  BOQ S1101     183.784 120.583 277.113  1.00  0.00     0.062 A 
ATOM      2  C1  BOQ S1101     183.105 120.802 279.128  1.00  0.00     0.073 A 
ATOM      3  C3  BOQ S1101     182.762 120.306 277.934  1.00  0.00     0.053 A 
ATOM      4  O5  BOQ S1101     184.768 121.259 277.767  1.00  0.00    -0.316 OA
ATOM      5  C2  BOQ S1101     184.349 121.409 279.040  1.00  0.00     0.097 A 
ENDROOT
BRANCH   2   6
ATOM      6  C4  BOQ S1101     182.268 120.738 280.404  1.00  0.00     0.295 C 
ATOM      7  O9  BOQ S1101     182.699 121.175 281.477  1.00  0.00    -0.259 OA
BRANCH   6   8
ATOM      8  O8  BOQ S1101     181.016 120.238 280.342  1.00  0.00    -0.318 OA
BRANCH   8   9
ATOM      9  C12 BOQ S1101     180.728 119.375 281.439  1.00  0.00     0.174 C 
ATOM     10  C16 BOQ S1101     180.767 117.964 280.873  1.00  0.00     0.034 C 
ENDBRANCH   8   9
ENDBRANCH   6   8
ENDBRANCH   2   6
BRANCH   5  11
ATOM     11  C6  BOQ S1101     185.212 122.130 280.088  1.00  0.00     0.332 C 
BRANCH  11  12
ATOM     12  N10 BOQ S1101     184.534 123.326 280.589  1.00  0.00     0.084 N 
ATOM     13  H   BOQ S1101     183.533 123.251 280.409  1.00  0.00     0.313 HD
ATOM     14  H   BOQ S1101     184.693 123.413 281.593  1.00  0.00     0.313 HD
ENDBRANCH  11  12
ENDBRANCH   5  11
BRANCH   1  15
ATOM     15  C11 BOQ S1101     183.927 120.256 275.623  1.00  0.00    -0.002 C 
ATOM     16  C13 BOQ S1101     182.557 119.964 275.003  1.00  0.00     0.021 C 
ATOM     17  C15 BOQ S1101     184.524 121.500 274.954  1.00  0.00     0.021 C 
ATOM     18  C14 BOQ S1101     184.881 119.070 275.430  1.00  0.00     0.021 C 
ENDBRANCH   1  15
TORSDOF 6
ENDMDL
MODEL 3
REMARK VINA RESULT:    -5.411      1.927      3.693
REMARK INTER + INTRA:          -7.687
REMARK INTER:                  -7.027
REMARK INTRA:                  -0.660
REMARK UNBOUND:                -0.537
REMARK  6 active torsions:
REMARK  status: ('A' for Active; 'I' for Inactive)
REMARK    1  A    between atoms: C4_1  and  C1_10 
REMARK    2  A    between atoms: C4_1  and  O8_8 
REMARK    3  A    between atoms: C6_2  and  C2_15 
REMARK    4  A    between atoms: C6_2  and  N10_16 
REMARK    5  A    between atoms: C7_3  and  C11_12 
REMARK    6  A    between atoms: C12_7  and  O8_8 
ROOT
ATOM      1  C7  BOQ S1101     183.519 120.446 276.885  1.00  0.00     0.062 A 
ATOM      2  C1  BOQ S1101     183.600 121.001 278.947  1.00  0.00     0.073 A 
ATOM      3  C3  BOQ S1101     184.322 120.968 277.821  1.00  0.00     0.053 A 
ATOM      4  O5  BOQ S1101     182.298 120.137 277.402  1.00  0.00    -0.316 OA
ATOM      5  C2  BOQ S1101     182.338 120.477 278.708  1.00  0.00     0.097 A 
ENDROOT
BRANCH   2   6
ATOM      6  C4  BOQ S1101     184.073 121.517 280.305  1.00  0.00     0.295 C 
ATOM      7  O9  BOQ S1101     183.345 121.459 281.303  1.00  0.00    -0.259 OA
BRANCH   6   8
ATOM      8  O8  BOQ S1101     185.328 121.996 280.423  1.00  0.00    -0.318 OA
BRANCH   8   9
ATOM      9  C12 BOQ S1101     185.348 123.409 280.608  1.00  0.00     0.174 C 
ATOM     10  C16 BOQ S1101     186.720 123.866 280.139  1.00  0.00     0.034 C 
ENDBRANCH   8   9
ENDBRANCH   6   8
ENDBRANCH   2   6
BRANCH   5  11
ATOM     11  C6  BOQ S1101     181.123 120.275 279.626  1.00  0.00     0.332 C 
BRANCH  11  12
ATOM     12  N10 BOQ S1101     181.453 119.384 280.740  1.00  0.00     0.084 N 
ATOM     13  H   BOQ S1101     182.112 118.673 280.423  1.00  0.00     0.313 HD
ATOM     14  H   BOQ S1101     181.874 119.925 281.495  1.00  0.00     0.313 HD
ENDBRANCH  11  12
ENDBRANCH   5  11
BRANCH   1  15
ATOM     15  C11 BOQ S1101     183.827 120.167 275.410  1.00  0.00    -0.002 C 
ATOM     16  C13 BOQ S1101     182.571 119.678 274.681  1.00  0.00     0.021 C 
ATOM     17  C15 BOQ S1101     184.277 121.497 274.795  1.00  0.00     0.021 C 
ATOM     18  C14 BOQ S1101     184.964 119.144 275.291  1.00  0.00     0.021 C 
ENDBRANCH   1  15
TORSDOF 6
ENDMDL
MODEL 4
REMARK VINA RESULT:    -5.380      1.944      3.685
REMARK INTER + INTRA:          -7.646
REMARK INTER:                  -6.994
REMARK INTRA:                  -0.653
REMARK UNBOUND:                -0.537
REMARK  6 active torsions:
REMARK  status: ('A' for Active; 'I' for Inactive)
REMARK    1  A    between atoms: C4_1  and  C1_10 
REMARK    2  A    between atoms: C4_1  and  O8_8 
REMARK    3  A    between atoms: C6_2  and  C2_15 
REMARK    4  A    between atoms: C6_2  and  N10_16 
REMARK    5  A    between atoms: C7_3  and  C11_12 
REMARK    6  A    between atoms: C12_7  and  O8_8 
ROOT
ATOM      1  C7  BOQ S1101     183.455 120.433 276.882  1.00  0.00     0.062 A 
ATOM      2  C1  BOQ S1101     183.512 120.947 278.956  1.00  0.00     0.073 A 
ATOM      3  C3  BOQ S1101     184.238 120.960 277.832  1.00  0.00     0.053 A 
ATOM      4  O5  BOQ S1101     182.243 120.074 277.389  1.00  0.00    -0.316 OA
ATOM      5  C2  BOQ S1101     182.268 120.388 278.701  1.00  0.00     0.097 A 
ENDROOT
BRANCH   2   6
ATOM      6  C4  BOQ S1101     183.964 121.448 280.327  1.00  0.00     0.295 C 
ATOM      7  O9  BOQ S1101     183.215 121.394 281.309  1.00  0.00    -0.259 OA
BRANCH   6   8
ATOM      8  O8  BOQ S1101     185.223 121.912 280.472  1.00  0.00    -0.318 OA
BRANCH   8   9
ATOM      9  C12 BOQ S1101     185.258 123.327 280.636  1.00  0.00     0.174 C 
ATOM     10  C16 BOQ S1101     186.618 123.768 280.117  1.00  0.00     0.034 C 
ENDBRANCH   8   9
ENDBRANCH   6   8
ENDBRANCH   2   6
BRANCH   5  11
ATOM     11  C6  BOQ S1101     181.057 120.128 279.610  1.00  0.00     0.332 C 
BRANCH  11  12
ATOM     12  N10 BOQ S1101     181.404 119.201 280.689  1.00  0.00     0.084 N 
ATOM     13  H   BOQ S1101     182.362 119.375 280.992  1.00  0.00     0.313 HD
ATOM     14  H   BOQ S1101     180.768 119.341 281.474  1.00  0.00     0.313 HD
ENDBRANCH  11  12
ENDBRANCH   5  11
BRANCH   1  15
ATOM     15  C11 BOQ S1101     183.777 120.195 275.403  1.00  0.00    -0.002 C 
ATOM     16  C13 BOQ S1101     184.297 121.481 274.753  1.00  0.00     0.021 C 
ATOM     17  C15 BOQ S1101     184.878 119.130 275.357  1.00  0.00     0.021 C 
ATOM     18  C14 BOQ S1101     182.535 119.673 274.668  1.00  0.00     0.021 C 
ENDBRANCH   1  15
TORSDOF 6
ENDMDL
MODEL 5
REMARK VINA RESULT:    -4.845      1.971      4.037
REMARK INTER + INTRA:          -6.939
REMARK INTER:                  -6.316
REMARK INTRA:                  -0.623
REMARK UNBOUND:                -0.537
REMARK  6 active torsions:
REMARK  status: ('A' for Active; 'I' for Inactive)
REMARK    1  A    between atoms: C4_1  and  C1_10 
REMARK    2  A    between atoms: C4_1  and  O8_8 
REMARK    3  A    between atoms: C6_2  and  C2_15 
REMARK    4  A    between atoms: C6_2  and  N10_16 
REMARK    5  A    between atoms: C7_3  and  C11_12 
REMARK    6  A    between atoms: C12_7  and  O8_8 
ROOT
ATOM      1  C7  BOQ S1101     184.967 122.022 279.428  1.00  0.00     0.062 A 
ATOM      2  C1  BOQ S1101     183.260 120.841 278.918  1.00  0.00     0.073 A 
ATOM      3  C3  BOQ S1101     183.804 121.560 279.906  1.00  0.00     0.053 A 
ATOM      4  O5  BOQ S1101     185.175 121.597 278.152  1.00  0.00    -0.316 OA
ATOM      5  C2  BOQ S1101     184.106 120.843 277.819  1.00  0.00     0.097 A 
ENDROOT
BRANCH   2   6
ATOM      6  C4  BOQ S1101     181.922 120.105 278.971  1.00  0.00     0.295 C 
ATOM      7  O9  BOQ S1101     181.586 119.319 278.078  1.00  0.00    -0.259 OA
BRANCH   6   8
ATOM      8  O8  BOQ S1101     181.118 120.283 280.040  1.00  0.00    -0.318 OA
BRANCH   8   9
ATOM      9  C12 BOQ S1101     180.850 119.059 280.719  1.00  0.00     0.174 C 
ATOM     10  C16 BOQ S1101     180.750 119.418 282.193  1.00  0.00     0.034 C 
ENDBRANCH   8   9
ENDBRANCH   6   8
ENDBRANCH   2   6
BRANCH   5  11
ATOM     11  C6  BOQ S1101     183.986 120.189 276.434  1.00  0.00     0.332 C 
BRANCH  11  12
ATOM     12  N10 BOQ S1101     182.893 120.789 275.667  1.00  0.00     0.084 N 
ATOM     13  H   BOQ S1101     182.170 120.088 275.500  1.00  0.00     0.313 HD
ATOM     14  H   BOQ S1101     182.496 121.568 276.193  1.00  0.00     0.313 HD
ENDBRANCH  11  12
ENDBRANCH   5  11
BRANCH   1  15
ATOM     15  C11 BOQ S1101     186.009 122.896 280.133  1.00  0.00    -0.002 C 
ATOM     16  C13 BOQ S1101     186.996 123.481 279.117  1.00  0.00     0.021 C 
ATOM     17  C15 BOQ S1101     185.243 124.041 280.805  1.00  0.00     0.021 C 
ATOM     18  C14 BOQ S1101     186.745 122.080 281.205  1.00  0.00     0.021 C 
ENDBRANCH   1  15
TORSDOF 6
ENDMDL
MODEL 6
REMARK VINA RESULT:    -4.833      1.789      3.593
REMARK INTER + INTRA:          -6.923
REMARK INTER:                  -6.124
REMARK INTRA:                  -0.800
REMARK UNBOUND:                -0.537
REMARK  6 active torsions:
REMARK  status: ('A' for Active; 'I' for Inactive)
REMARK    1  A    between atoms: C4_1  and  C1_10 
REMARK    2  A    between atoms: C4_1  and  O8_8 
REMARK    3  A    between atoms: C6_2  and  C2_15 
REMARK    4  A    between atoms: C6_2  and  N10_16 
REMARK    5  A    between atoms: C7_3  and  C11_12 
REMARK    6  A    between atoms: C12_7  and  O8_8 
ROOT
ATOM      1  C7  BOQ S1101     183.905 120.504 276.941  1.00  0.00     0.062 A 
ATOM      2  C1  BOQ S1101     183.996 121.112 278.989  1.00  0.00     0.073 A 
ATOM      3  C3  BOQ S1101     184.631 121.213 277.816  1.00  0.00     0.053 A 
ATOM      4  O5  BOQ S1101     182.821 119.944 277.545  1.00  0.00    -0.316 OA
ATOM      5  C2  BOQ S1101     182.871 120.314 278.842  1.00  0.00     0.097 A 
ENDROOT
BRANCH   2   6
ATOM      6  C4  BOQ S1101     184.431 121.750 280.307  1.00  0.00     0.295 C 
ATOM      7  O9  BOQ S1101     183.619 121.966 281.214  1.00  0.00    -0.259 OA
BRANCH   6   8
ATOM      8  O8  BOQ S1101     185.735 122.036 280.497  1.00  0.00    -0.318 OA
BRANCH   8   9
ATOM      9  C12 BOQ S1101     185.944 123.410 280.813  1.00  0.00     0.174 C 
ATOM     10  C16 BOQ S1101     186.998 123.902 279.834  1.00  0.00     0.034 C 
ENDBRANCH   8   9
ENDBRANCH   6   8
ENDBRANCH   2   6
BRANCH   5  11
ATOM     11  C6  BOQ S1101     181.794 119.869 279.844  1.00  0.00     0.332 C 
BRANCH  11  12
ATOM     12  N10 BOQ S1101     181.056 121.021 280.363  1.00  0.00     0.084 N 
ATOM     13  H   BOQ S1101     180.742 121.603 279.586  1.00  0.00     0.313 HD
ATOM     14  H   BOQ S1101     180.246 120.696 280.892  1.00  0.00     0.313 HD
ENDBRANCH  11  12
ENDBRANCH   5  11
BRANCH   1  15
ATOM     15  C11 BOQ S1101     184.170 120.267 275.451  1.00  0.00    -0.002 C 
ATOM     16  C13 BOQ S1101     185.029 119.014 275.251  1.00  0.00     0.021 C 
ATOM     17  C15 BOQ S1101     182.804 120.048 274.790  1.00  0.00     0.021 C 
ATOM     18  C14 BOQ S1101     184.842 121.499 274.830  1.00  0.00     0.021 C 
ENDBRANCH   1  15
TORSDOF 6
ENDMDL
MODEL 7
REMARK VINA RESULT:    -4.751      1.102      1.140
REMARK INTER + INTRA:          -6.815
REMARK INTER:                  -6.405
REMARK INTRA:                  -0.410
REMARK UNBOUND:                -0.537
REMARK  6 active torsions:
REMARK  status: ('A' for Active; 'I' for Inactive)
REMARK    1  A    between atoms: C4_1  and  C1_10 
REMARK    2  A    between atoms: C4_1  and  O8_8 
REMARK    3  A    between atoms: C6_2  and  C2_15 
REMARK    4  A    between atoms: C6_2  and  N10_16 
REMARK    5  A    between atoms: C7_3  and  C11_12 
REMARK    6  A    between atoms: C12_7  and  O8_8 
ROOT
ATOM      1  C7  BOQ S1101     184.364 120.670 277.538  1.00  0.00     0.062 A 
ATOM      2  C1  BOQ S1101     183.617 121.028 279.508  1.00  0.00     0.073 A 
ATOM      3  C3  BOQ S1101     183.355 120.378 278.369  1.00  0.00     0.053 A 
ATOM      4  O5  BOQ S1101     185.260 121.507 278.130  1.00  0.00    -0.316 OA
ATOM      5  C2  BOQ S1101     184.796 121.746 279.374  1.00  0.00     0.097 A 
ENDROOT
BRANCH   2   6
ATOM      6  C4  BOQ S1101     182.759 121.014 280.772  1.00  0.00     0.295 C 
ATOM      7  O9  BOQ S1101     183.118 121.600 281.799  1.00  0.00    -0.259 OA
BRANCH   6   8
ATOM      8  O8  BOQ S1101     181.563 120.389 280.744  1.00  0.00    -0.318 OA
BRANCH   8   9
ATOM      9  C12 BOQ S1101     180.992 120.265 282.044  1.00  0.00     0.174 C 
ATOM     10  C16 BOQ S1101     180.875 118.771 282.302  1.00  0.00     0.034 C 
ENDBRANCH   8   9
ENDBRANCH   6   8
ENDBRANCH   2   6
BRANCH   5  11
ATOM     11  C6  BOQ S1101     185.556 122.656 280.351  1.00  0.00     0.332 C 
BRANCH  11  12
ATOM     12  N10 BOQ S1101     186.864 122.088 280.684  1.00  0.00     0.084 N 
ATOM     13  H   BOQ S1101     186.873 121.808 281.665  1.00  0.00     0.313 HD
ATOM     14  H   BOQ S1101     187.040 121.273 280.096  1.00  0.00     0.313 HD
ENDBRANCH  11  12
ENDBRANCH   5  11
BRANCH   1  15
ATOM     15  C11 BOQ S1101     184.576 120.205 276.093  1.00  0.00    -0.002 C 
ATOM     16  C13 BOQ S1101     185.033 118.743 276.060  1.00  0.00     0.021 C 
ATOM     17  C15 BOQ S1101     183.219 120.322 275.389  1.00  0.00     0.021 C 
ATOM     18  C14 BOQ S1101     185.592 121.114 275.389  1.00  0.00     0.021 C 
ENDBRANCH   1  15
TORSDOF 6
ENDMDL
MODEL 8
REMARK VINA RESULT:    -4.629      2.093      5.301
REMARK INTER + INTRA:          -6.654
REMARK INTER:                  -5.930
REMARK INTRA:                  -0.724
REMARK UNBOUND:                -0.537
REMARK  6 active torsions:
REMARK  status: ('A' for Active; 'I' for Inactive)
REMARK    1  A    between atoms: C4_1  and  C1_10 
REMARK    2  A    between atoms: C4_1  and  O8_8 
REMARK    3  A    between atoms: C6_2  and  C2_15 
REMARK    4  A    between atoms: C6_2  and  N10_16 
REMARK    5  A    between atoms: C7_3  and  C11_12 
REMARK    6  A    between atoms: C12_7  and  O8_8 
ROOT
ATOM      1  C7  BOQ S1101     184.842 121.927 279.724  1.00  0.00     0.062 A 
ATOM      2  C1  BOQ S1101     183.869 120.747 278.231  1.00  0.00     0.073 A 
ATOM      3  C3  BOQ S1101     184.991 121.428 278.489  1.00  0.00     0.053 A 
ATOM      4  O5  BOQ S1101     183.635 121.582 280.250  1.00  0.00    -0.316 OA
ATOM      5  C2  BOQ S1101     183.007 120.841 279.314  1.00  0.00     0.097 A 
ENDROOT
BRANCH   2   6
ATOM      6  C4  BOQ S1101     183.551 119.988 276.944  1.00  0.00     0.295 C 
ATOM      7  O9  BOQ S1101     182.534 120.236 276.286  1.00  0.00    -0.259 OA
BRANCH   6   8
ATOM      8  O8  BOQ S1101     184.428 119.066 276.494  1.00  0.00    -0.318 OA
BRANCH   8   9
ATOM      9  C12 BOQ S1101     184.644 119.170 275.090  1.00  0.00     0.174 C 
ATOM     10  C16 BOQ S1101     185.922 119.978 274.928  1.00  0.00     0.034 C 
ENDBRANCH   8   9
ENDBRANCH   6   8
ENDBRANCH   2   6
BRANCH   5  11
ATOM     11  C6  BOQ S1101     181.604 120.263 279.558  1.00  0.00     0.332 C 
BRANCH  11  12
ATOM     12  N10 BOQ S1101     181.300 120.217 280.989  1.00  0.00     0.084 N 
ATOM     13  H   BOQ S1101     181.043 121.150 281.312  1.00  0.00     0.313 HD
ATOM     14  H   BOQ S1101     180.524 119.575 281.151  1.00  0.00     0.313 HD
ENDBRANCH  11  12
ENDBRANCH   5  11
BRANCH   1  15
ATOM     15  C11 BOQ S1101     185.816 122.798 280.525  1.00  0.00    -0.002 C 
ATOM     16  C13 BOQ S1101     186.998 123.227 279.649  1.00  0.00     0.021 C 
ATOM     17  C15 BOQ S1101     185.037 124.044 280.961  1.00  0.00     0.021 C 
ATOM     18  C14 BOQ S1101     186.301 122.042 281.769  1.00  0.00     0.021 C 
ENDBRANCH   1  15
TORSDOF 6
ENDMDL
MODEL 9
REMARK VINA RESULT:    -4.623      1.066      4.919
REMARK INTER + INTRA:          -6.646
REMARK INTER:                  -5.912
REMARK INTRA:                  -0.734
REMARK UNBOUND:                -0.537
REMARK  6 active torsions:
REMARK  status: ('A' for Active; 'I' for Inactive)
REMARK    1  A    between atoms: C4_1  and  C1_10 
REMARK    2  A    between atoms: C4_1  and  O8_8 
REMARK    3  A    between atoms: C6_2  and  C2_15 
REMARK    4  A    between atoms: C6_2  and  N10_16 
REMARK    5  A    between atoms: C7_3  and  C11_12 
REMARK    6  A    between atoms: C12_7  and  O8_8 
ROOT
ATOM      1  C7  BOQ S1101     182.219 120.030 279.837  1.00  0.00     0.062 A 
ATOM      2  C1  BOQ S1101     183.685 120.772 278.470  1.00  0.00     0.073 A 
ATOM      3  C3  BOQ S1101     182.665 119.913 278.580  1.00  0.00     0.053 A 
ATOM      4  O5  BOQ S1101     182.949 120.944 280.533  1.00  0.00    -0.316 OA
ATOM      5  C2  BOQ S1101     183.884 121.416 279.682  1.00  0.00     0.097 A 
ENDROOT
BRANCH   2   6
ATOM      6  C4  BOQ S1101     184.529 121.013 277.220  1.00  0.00     0.295 C 
ATOM      7  O9  BOQ S1101     185.749 120.812 277.220  1.00  0.00    -0.259 OA
BRANCH   6   8
ATOM      8  O8  BOQ S1101     183.918 121.405 276.083  1.00  0.00    -0.318 OA
BRANCH   8   9
ATOM      9  C12 BOQ S1101     184.158 120.503 275.006  1.00  0.00     0.174 C 
ATOM     10  C16 BOQ S1101     182.803 119.909 274.656  1.00  0.00     0.034 C 
ENDBRANCH   8   9
ENDBRANCH   6   8
ENDBRANCH   2   6
BRANCH   5  11
ATOM     11  C6  BOQ S1101     184.901 122.482 280.119  1.00  0.00     0.332 C 
BRANCH  11  12
ATOM     12  N10 BOQ S1101     184.526 123.063 281.409  1.00  0.00     0.084 N 
ATOM     13  H   BOQ S1101     183.914 123.865 281.256  1.00  0.00     0.313 HD
ATOM     14  H   BOQ S1101     184.037 122.364 281.968  1.00  0.00     0.313 HD
ENDBRANCH  11  12
ENDBRANCH   5  11
BRANCH   1  15
ATOM     15  C11 BOQ S1101     181.071 119.277 280.517  1.00  0.00    -0.002 C 
ATOM     16  C13 BOQ S1101     179.734 119.619 279.851  1.00  0.00     0.021 C 
ATOM     17  C15 BOQ S1101     181.354 117.782 280.332  1.00  0.00     0.021 C 
ATOM     18  C14 BOQ S1101     181.037 119.605 282.016  1.00  0.00     0.021 C 
ENDBRANCH   1  15
TORSDOF 6
ENDMDL
MODEL 10
REMARK VINA RESULT:    -4.545      1.969      2.569
REMARK INTER + INTRA:          -6.543
REMARK INTER:                  -5.803
REMARK INTRA:                  -0.740
REMARK UNBOUND:                -0.537
REMARK  6 active torsions:
REMARK  status: ('A' for Active; 'I' for Inactive)
REMARK    1  A    between atoms: C4_1  and  C1_10 
REMARK    2  A    between atoms: C4_1  and  O8_8 
REMARK    3  A    between atoms: C6_2  and  C2_15 
REMARK    4  A    between atoms: C6_2  and  N10_16 
REMARK    5  A    between atoms: C7_3  and  C11_12 
REMARK    6  A    between atoms: C12_7  and  O8_8 
ROOT
ATOM      1  C7  BOQ S1101     184.530 120.487 276.977  1.00  0.00     0.062 A 
ATOM      2  C1  BOQ S1101     183.602 120.759 278.884  1.00  0.00     0.073 A 
ATOM      3  C3  BOQ S1101     184.624 121.172 278.125  1.00  0.00     0.053 A 
ATOM      4  O5  BOQ S1101     183.469 119.636 277.000  1.00  0.00    -0.316 OA
ATOM      5  C2  BOQ S1101     182.877 119.793 278.202  1.00  0.00     0.097 A 
ENDROOT
BRANCH   2   6
ATOM      6  C4  BOQ S1101     183.271 121.247 280.293  1.00  0.00     0.295 C 
ATOM      7  O9  BOQ S1101     184.130 121.774 281.008  1.00  0.00    -0.259 OA
BRANCH   6   8
ATOM      8  O8  BOQ S1101     182.002 121.144 280.740  1.00  0.00    -0.318 OA
BRANCH   8   9
ATOM      9  C12 BOQ S1101     181.947 120.794 282.120  1.00  0.00     0.174 C 
ATOM     10  C16 BOQ S1101     180.971 119.632 282.212  1.00  0.00     0.034 C 
ENDBRANCH   8   9
ENDBRANCH   6   8
ENDBRANCH   2   6
BRANCH   5  11
ATOM     11  C6  BOQ S1101     181.626 118.989 278.591  1.00  0.00     0.332 C 
BRANCH  11  12
ATOM     12  N10 BOQ S1101     180.501 119.881 278.877  1.00  0.00     0.084 N 
ATOM     13  H   BOQ S1101     180.308 120.459 278.059  1.00  0.00     0.313 HD
ATOM     14  H   BOQ S1101     179.675 119.325 279.103  1.00  0.00     0.313 HD
ENDBRANCH  11  12
ENDBRANCH   5  11
BRANCH   1  15
ATOM     15  C11 BOQ S1101     185.445 120.552 275.750  1.00  0.00    -0.002 C 
ATOM     16  C13 BOQ S1101     185.381 119.239 274.962  1.00  0.00     0.021 C 
ATOM     17  C15 BOQ S1101     184.921 121.691 274.869  1.00  0.00     0.021 C 
ATOM     18  C14 BOQ S1101     186.885 120.865 276.179  1.00  0.00     0.021 C 
ENDBRANCH   1  15
TORSDOF 6
ENDMDL
MODEL 11
REMARK VINA RESULT:    -4.530      1.328      4.945
REMARK INTER + INTRA:          -6.523
REMARK INTER:                  -5.912
REMARK INTRA:                  -0.611
REMARK UNBOUND:                -0.537
REMARK  6 active torsions:
REMARK  status: ('A' for Active; 'I' for Inactive)
REMARK    1  A    between atoms: C4_1  and  C1_10 
REMARK    2  A    between atoms: C4_1  and  O8_8 
REMARK    3  A    between atoms: C6_2  and  C2_15 
REMARK    4  A    between atoms: C6_2  and  N10_16 
REMARK    5  A    between atoms: C7_3  and  C11_12 
REMARK    6  A    between atoms: C12_7  and  O8_8 
ROOT
ATOM      1  C7  BOQ S1101     182.425 120.237 279.796  1.00  0.00     0.062 A 
ATOM      2  C1  BOQ S1101     183.980 120.963 278.521  1.00  0.00     0.073 A 
ATOM      3  C3  BOQ S1101     182.950 120.111 278.569  1.00  0.00     0.053 A 
ATOM      4  O5  BOQ S1101     183.116 121.149 280.532  1.00  0.00    -0.316 OA
ATOM      5  C2  BOQ S1101     184.106 121.612 279.740  1.00  0.00     0.097 A 
ENDROOT
BRANCH   2   6
ATOM      6  C4  BOQ S1101     184.903 121.193 277.326  1.00  0.00     0.295 C 
ATOM      7  O9  BOQ S1101     186.122 121.337 277.474  1.00  0.00    -0.259 OA
BRANCH   6   8
ATOM      8  O8  BOQ S1101     184.379 121.188 276.083  1.00  0.00    -0.318 OA
BRANCH   8   9
ATOM      9  C12 BOQ S1101     185.247 120.570 275.137  1.00  0.00     0.174 C 
ATOM     10  C16 BOQ S1101     184.888 119.092 275.152  1.00  0.00     0.034 C 
ENDBRANCH   8   9
ENDBRANCH   6   8
ENDBRANCH   2   6
BRANCH   5  11
ATOM     11  C6  BOQ S1101     185.099 122.674 280.236  1.00  0.00     0.332 C 
BRANCH  11  12
ATOM     12  N10 BOQ S1101     184.641 123.272 281.491  1.00  0.00     0.084 N 
ATOM     13  H   BOQ S1101     183.698 123.642 281.367  1.00  0.00     0.313 HD
ATOM     14  H   BOQ S1101     184.634 122.562 282.224  1.00  0.00     0.313 HD
ENDBRANCH  11  12
ENDBRANCH   5  11
BRANCH   1  15
ATOM     15  C11 BOQ S1101     181.232 119.494 280.404  1.00  0.00    -0.002 C 
ATOM     16  C13 BOQ S1101     181.042 119.892 281.872  1.00  0.00     0.021 C 
ATOM     17  C15 BOQ S1101     179.994 119.919 279.606  1.00  0.00     0.021 C 
ATOM     18  C14 BOQ S1101     181.426 117.978 280.267  1.00  0.00     0.021 C 
ENDBRANCH   1  15
TORSDOF 6
ENDMDL
MODEL 12
REMARK VINA RESULT:    -4.510      2.039      3.781
REMARK INTER + INTRA:          -6.497
REMARK INTER:                  -6.391
REMARK INTRA:                  -0.106
REMARK UNBOUND:                -0.537
REMARK  6 active torsions:
REMARK  status: ('A' for Active; 'I' for Inactive)
REMARK    1  A    between atoms: C4_1  and  C1_10 
REMARK    2  A    between atoms: C4_1  and  O8_8 
REMARK    3  A    between atoms: C6_2  and  C2_15 
REMARK    4  A    between atoms: C6_2  and  N10_16 
REMARK    5  A    between atoms: C7_3  and  C11_12 
REMARK    6  A    between atoms: C12_7  and  O8_8 
ROOT
ATOM      1  C7  BOQ S1101     184.278 120.658 277.053  1.00  0.00     0.062 A 
ATOM      2  C1  BOQ S1101     184.473 121.352 279.066  1.00  0.00     0.073 A 
ATOM      3  C3  BOQ S1101     185.128 121.247 277.904  1.00  0.00     0.053 A 
ATOM      4  O5  BOQ S1101     183.093 120.377 277.661  1.00  0.00    -0.316 OA
ATOM      5  C2  BOQ S1101     183.205 120.805 278.936  1.00  0.00     0.097 A 
ENDROOT
BRANCH   2   6
ATOM      6  C4  BOQ S1101     185.017 121.962 280.356  1.00  0.00     0.295 C 
ATOM      7  O9  BOQ S1101     184.286 122.154 281.334  1.00  0.00    -0.259 OA
BRANCH   6   8
ATOM      8  O8  BOQ S1101     186.334 122.246 280.441  1.00  0.00    -0.318 OA
BRANCH   8   9
ATOM      9  C12 BOQ S1101     186.614 123.183 281.477  1.00  0.00     0.174 C 
ATOM     10  C16 BOQ S1101     186.997 122.352 282.692  1.00  0.00     0.034 C 
ENDBRANCH   8   9
ENDBRANCH   6   8
ENDBRANCH   2   6
BRANCH   5  11
ATOM     11  C6  BOQ S1101     182.047 120.658 279.936  1.00  0.00     0.332 C 
BRANCH  11  12
ATOM     12  N10 BOQ S1101     180.904 119.985 279.316  1.00  0.00     0.084 N 
ATOM     13  H   BOQ S1101     181.096 119.831 278.326  1.00  0.00     0.313 HD
ATOM     14  H   BOQ S1101     180.748 119.087 279.775  1.00  0.00     0.313 HD
ENDBRANCH  11  12
ENDBRANCH   5  11
BRANCH   1  15
ATOM     15  C11 BOQ S1101     184.503 120.281 275.586  1.00  0.00    -0.002 C 
ATOM     16  C13 BOQ S1101     185.342 121.352 274.879  1.00  0.00     0.021 C 
ATOM     17  C15 BOQ S1101     185.276 118.958 275.584  1.00  0.00     0.021 C 
ATOM     18  C14 BOQ S1101     183.157 120.083 274.877  1.00  0.00     0.021 C 
ENDBRANCH   1  15
TORSDOF 6
ENDMDL
MODEL 13
REMARK VINA RESULT:    -4.240      2.134      4.246
REMARK INTER + INTRA:          -6.140
REMARK INTER:                  -5.481
REMARK INTRA:                  -0.659
REMARK UNBOUND:                -0.537
REMARK  6 active torsions:
REMARK  status: ('A' for Active; 'I' for Inactive)
REMARK    1  A    between atoms: C4_1  and  C1_10 
REMARK    2  A    between atoms: C4_1  and  O8_8 
REMARK    3  A    between atoms: C6_2  and  C2_15 
REMARK    4  A    between atoms: C6_2  and  N10_16 
REMARK    5  A    between atoms: C7_3  and  C11_12 
REMARK    6  A    between atoms: C12_7  and  O8_8 
ROOT
ATOM      1  C7  BOQ S1101     185.088 122.068 279.709  1.00  0.00     0.062 A 
ATOM      2  C1  BOQ S1101     183.548 120.882 278.819  1.00  0.00     0.073 A 
ATOM      3  C3  BOQ S1101     183.831 121.639 279.885  1.00  0.00     0.053 A 
ATOM      4  O5  BOQ S1101     185.612 121.584 278.550  1.00  0.00    -0.316 OA
ATOM      5  C2  BOQ S1101     184.651 120.827 277.980  1.00  0.00     0.097 A 
ENDROOT
BRANCH   2   6
ATOM      6  C4  BOQ S1101     182.227 120.163 278.550  1.00  0.00     0.295 C 
ATOM      7  O9  BOQ S1101     182.042 119.531 277.504  1.00  0.00    -0.259 OA
BRANCH   6   8
ATOM      8  O8  BOQ S1101     181.267 120.180 279.498  1.00  0.00    -0.318 OA
BRANCH   8   9
ATOM      9  C12 BOQ S1101     181.227 118.966 280.243  1.00  0.00     0.174 C 
ATOM     10  C16 BOQ S1101     180.885 119.370 281.669  1.00  0.00     0.034 C 
ENDBRANCH   8   9
ENDBRANCH   6   8
ENDBRANCH   2   6
BRANCH   5  11
ATOM     11  C6  BOQ S1101     184.882 120.114 276.639  1.00  0.00     0.332 C 
BRANCH  11  12
ATOM     12  N10 BOQ S1101     184.760 118.663 276.791  1.00  0.00     0.084 N 
ATOM     13  H   BOQ S1101     185.550 118.206 276.336  1.00  0.00     0.313 HD
ATOM     14  H   BOQ S1101     184.754 118.425 277.783  1.00  0.00     0.313 HD
ENDBRANCH  11  12
ENDBRANCH   5  11
BRANCH   1  15
ATOM     15  C11 BOQ S1101     185.930 122.961 280.626  1.00  0.00    -0.002 C 
ATOM     16  C13 BOQ S1101     186.629 122.121 281.700  1.00  0.00     0.021 C 
ATOM     17  C15 BOQ S1101     186.990 123.626 279.742  1.00  0.00     0.021 C 
ATOM     18  C14 BOQ S1101     185.049 124.044 281.264  1.00  0.00     0.021 C 
ENDBRANCH   1  15
TORSDOF 6
ENDMDL
MODEL 14
REMARK VINA RESULT:    -4.141      1.215      5.186
REMARK INTER + INTRA:          -6.009
REMARK INTER:                  -5.327
REMARK INTRA:                  -0.681
REMARK UNBOUND:                -0.537
REMARK  6 active torsions:
REMARK  status: ('A' for Active; 'I' for Inactive)
REMARK    1  A    between atoms: C4_1  and  C1_10 
REMARK    2  A    between atoms: C4_1  and  O8_8 
REMARK    3  A    between atoms: C6_2  and  C2_15 
REMARK    4  A    between atoms: C6_2  and  N10_16 
REMARK    5  A    between atoms: C7_3  and  C11_12 
REMARK    6  A    between atoms: C12_7  and  O8_8 
ROOT
ATOM      1  C7  BOQ S1101     181.619 119.625 280.260  1.00  0.00     0.062 A 
ATOM      2  C1  BOQ S1101     182.696 120.501 278.634  1.00  0.00     0.073 A 
ATOM      3  C3  BOQ S1101     181.746 119.605 278.926  1.00  0.00     0.053 A 
ATOM      4  O5  BOQ S1101     182.483 120.515 280.821  1.00  0.00    -0.316 OA
ATOM      5  C2  BOQ S1101     183.175 121.071 279.804  1.00  0.00     0.097 A 
ENDROOT
BRANCH   2   6
ATOM      6  C4  BOQ S1101     183.206 120.850 277.237  1.00  0.00     0.295 C 
ATOM      7  O9  BOQ S1101     182.427 121.148 276.325  1.00  0.00    -0.259 OA
BRANCH   6   8
ATOM      8  O8  BOQ S1101     184.536 120.881 277.014  1.00  0.00    -0.318 OA
BRANCH   8   9
ATOM      9  C12 BOQ S1101     184.879 120.348 275.738  1.00  0.00     0.174 C 
ATOM     10  C16 BOQ S1101     185.195 118.880 275.976  1.00  0.00     0.034 C 
ENDBRANCH   8   9
ENDBRANCH   6   8
ENDBRANCH   2   6
BRANCH   5  11
ATOM     11  C6  BOQ S1101     184.251 122.138 280.056  1.00  0.00     0.332 C 
BRANCH  11  12
ATOM     12  N10 BOQ S1101     184.243 122.567 281.456  1.00  0.00     0.084 N 
ATOM     13  H   BOQ S1101     185.202 122.626 281.799  1.00  0.00     0.313 HD
ATOM     14  H   BOQ S1101     183.799 123.483 281.528  1.00  0.00     0.313 HD
ENDBRANCH  11  12
ENDBRANCH   5  11
BRANCH   1  15
ATOM     15  C11 BOQ S1101     180.683 118.793 281.142  1.00  0.00    -0.002 C 
ATOM     16  C13 BOQ S1101     179.225 118.992 280.716  1.00  0.00     0.021 C 
ATOM     17  C15 BOQ S1101     181.070 117.325 280.933  1.00  0.00     0.021 C 
ATOM     18  C14 BOQ S1101     180.879 119.164 282.618  1.00  0.00     0.021 C 
ENDBRANCH   1  15
TORSDOF 6
ENDMDL
MODEL 15
REMARK VINA RESULT:    -3.896      1.603      5.318
REMARK INTER + INTRA:          -5.685
REMARK INTER:                  -4.672
REMARK INTRA:                  -1.013
REMARK UNBOUND:                -0.537
REMARK  6 active torsions:
REMARK  status: ('A' for Active; 'I' for Inactive)
REMARK    1  A    between atoms: C4_1  and  C1_10 
REMARK    2  A    between atoms: C4_1  and  O8_8 
REMARK    3  A    between atoms: C6_2  and  C2_15 
REMARK    4  A    between atoms: C6_2  and  N10_16 
REMARK    5  A    between atoms: C7_3  and  C11_12 
REMARK    6  A    between atoms: C12_7  and  O8_8 
ROOT
ATOM      1  C7  BOQ S1101     182.182 119.940 279.507  1.00  0.00     0.062 A 
ATOM      2  C1  BOQ S1101     183.369 120.631 277.868  1.00  0.00     0.073 A 
ATOM      3  C3  BOQ S1101     182.306 119.878 278.175  1.00  0.00     0.053 A 
ATOM      4  O5  BOQ S1101     183.159 120.714 280.054  1.00  0.00    -0.316 OA
ATOM      5  C2  BOQ S1101     183.921 121.152 279.030  1.00  0.00     0.097 A 
ENDROOT
BRANCH   2   6
ATOM      6  C4  BOQ S1101     183.923 120.881 276.467  1.00  0.00     0.295 C 
ATOM      7  O9  BOQ S1101     183.197 121.289 275.553  1.00  0.00    -0.259 OA
BRANCH   6   8
ATOM      8  O8  BOQ S1101     185.241 120.700 276.242  1.00  0.00    -0.318 OA
BRANCH   8   9
ATOM      9  C12 BOQ S1101     185.638 121.189 274.963  1.00  0.00     0.174 C 
ATOM     10  C16 BOQ S1101     186.462 122.437 275.238  1.00  0.00     0.034 C 
ENDBRANCH   8   9
ENDBRANCH   6   8
ENDBRANCH   2   6
BRANCH   5  11
ATOM     11  C6  BOQ S1101     185.133 122.067 279.265  1.00  0.00     0.332 C 
BRANCH  11  12
ATOM     12  N10 BOQ S1101     186.361 121.444 278.771  1.00  0.00     0.084 N 
ATOM     13  H   BOQ S1101     187.023 121.339 279.540  1.00  0.00     0.313 HD
ATOM     14  H   BOQ S1101     186.145 120.526 278.382  1.00  0.00     0.313 HD
ENDBRANCH  11  12
ENDBRANCH   5  11
BRANCH   1  15
ATOM     15  C11 BOQ S1101     181.141 119.260 280.402  1.00  0.00    -0.002 C 
ATOM     16  C13 BOQ S1101     181.239 119.787 281.837  1.00  0.00     0.021 C 
ATOM     17  C15 BOQ S1101     179.766 119.619 279.829  1.00  0.00     0.021 C 
ATOM     18  C14 BOQ S1101     181.325 117.737 280.363  1.00  0.00     0.021 C 
ENDBRANCH   1  15
TORSDOF 6
ENDMDL
MODEL 16
REMARK VINA RESULT:    -3.870      2.464      5.664
REMARK INTER + INTRA:          -5.651
REMARK INTER:                  -4.778
REMARK INTRA:                  -0.873
REMARK UNBOUND:                -0.537
REMARK  6 active torsions:
REMARK  status: ('A' for Active; 'I' for Inactive)
REMARK    1  A    between atoms: C4_1  and  C1_10 
REMARK    2  A    between atoms: C4_1  and  O8_8 
REMARK    3  A    between atoms: C6_2  and  C2_15 
REMARK    4  A    between atoms: C6_2  and  N10_16 
REMARK    5  A    between atoms: C7_3  and  C11_12 
REMARK    6  A    between atoms: C12_7  and  O8_8 
ROOT
ATOM      1  C7  BOQ S1101     182.385 120.012 278.875  1.00  0.00     0.062 A 
ATOM      2  C1  BOQ S1101     184.002 120.703 277.659  1.00  0.00     0.073 A 
ATOM      3  C3  BOQ S1101     183.575 120.626 278.924  1.00  0.00     0.053 A 
ATOM      4  O5  BOQ S1101     182.044 119.708 277.593  1.00  0.00    -0.316 OA
ATOM      5  C2  BOQ S1101     183.055 120.146 276.813  1.00  0.00     0.097 A 
ENDROOT
BRANCH   2   6
ATOM      6  C4  BOQ S1101     185.318 121.321 277.188  1.00  0.00     0.295 C 
ATOM      7  O9  BOQ S1101     186.287 121.424 277.948  1.00  0.00    -0.259 OA
BRANCH   6   8
ATOM      8  O8  BOQ S1101     185.433 121.713 275.902  1.00  0.00    -0.318 OA
BRANCH   8   9
ATOM      9  C12 BOQ S1101     186.770 121.594 275.422  1.00  0.00     0.174 C 
ATOM     10  C16 BOQ S1101     186.834 120.251 274.712  1.00  0.00     0.034 C 
ENDBRANCH   8   9
ENDBRANCH   6   8
ENDBRANCH   2   6
BRANCH   5  11
ATOM     11  C6  BOQ S1101     183.024 119.970 275.286  1.00  0.00     0.332 C 
BRANCH  11  12
ATOM     12  N10 BOQ S1101     183.099 121.266 274.610  1.00  0.00     0.084 N 
ATOM     13  H   BOQ S1101     183.527 121.951 275.233  1.00  0.00     0.313 HD
ATOM     14  H   BOQ S1101     183.663 121.176 273.765  1.00  0.00     0.313 HD
ENDBRANCH  11  12
ENDBRANCH   5  11
BRANCH   1  15
ATOM     15  C11 BOQ S1101     181.440 119.668 280.030  1.00  0.00    -0.002 C 
ATOM     16  C13 BOQ S1101     181.784 120.498 281.271  1.00  0.00     0.021 C 
ATOM     17  C15 BOQ S1101     180.025 120.028 279.563  1.00  0.00     0.021 C 
ATOM     18  C14 BOQ S1101     181.505 118.166 280.338  1.00  0.00     0.021 C 
ENDBRANCH   1  15
TORSDOF 6
ENDMDL
MODEL 17
REMARK VINA RESULT:    -3.847      2.442      5.370
REMARK INTER + INTRA:          -5.621
REMARK INTER:                  -4.754
REMARK INTRA:                  -0.866
REMARK UNBOUND:                -0.537
REMARK  6 active torsions:
REMARK  status: ('A' for Active; 'I' for Inactive)
REMARK    1  A    between atoms: C4_1  and  C1_10 
REMARK    2  A    between atoms: C4_1  and  O8_8 
REMARK    3  A    between atoms: C6_2  and  C2_15 
REMARK    4  A    between atoms: C6_2  and  N10_16 
REMARK    5  A    between atoms: C7_3  and  C11_12 
REMARK    6  A    between atoms: C12_7  and  O8_8 
ROOT
ATOM      1  C7  BOQ S1101     182.367 119.979 278.831  1.00  0.00     0.062 A 
ATOM      2  C1  BOQ S1101     184.005 120.696 277.659  1.00  0.00     0.073 A 
ATOM      3  C3  BOQ S1101     183.547 120.608 278.913  1.00  0.00     0.053 A 
ATOM      4  O5  BOQ S1101     182.063 119.675 277.539  1.00  0.00    -0.316 OA
ATOM      5  C2  BOQ S1101     183.087 120.129 276.787  1.00  0.00     0.097 A 
ENDROOT
BRANCH   2   6
ATOM      6  C4  BOQ S1101     185.324 121.333 277.224  1.00  0.00     0.295 C 
ATOM      7  O9  BOQ S1101     185.418 121.949 276.157  1.00  0.00    -0.259 OA
BRANCH   6   8
ATOM      8  O8  BOQ S1101     186.389 121.261 278.049  1.00  0.00    -0.318 OA
BRANCH   8   9
ATOM      9  C12 BOQ S1101     186.998 122.534 278.252  1.00  0.00     0.174 C 
ATOM     10  C16 BOQ S1101     186.525 123.003 279.619  1.00  0.00     0.034 C 
ENDBRANCH   8   9
ENDBRANCH   6   8
ENDBRANCH   2   6
BRANCH   5  11
ATOM     11  C6  BOQ S1101     183.098 119.958 275.260  1.00  0.00     0.332 C 
BRANCH  11  12
ATOM     12  N10 BOQ S1101     183.208 121.255 274.590  1.00  0.00     0.084 N 
ATOM     13  H   BOQ S1101     183.709 121.908 275.193  1.00  0.00     0.313 HD
ATOM     14  H   BOQ S1101     183.716 121.143 273.713  1.00  0.00     0.313 HD
ENDBRANCH  11  12
ENDBRANCH   5  11
BRANCH   1  15
ATOM     15  C11 BOQ S1101     181.397 119.619 279.960  1.00  0.00    -0.002 C 
ATOM     16  C13 BOQ S1101     181.508 118.131 280.310  1.00  0.00     0.021 C 
ATOM     17  C15 BOQ S1101     181.809 120.452 281.179  1.00  0.00     0.021 C 
ATOM     18  C14 BOQ S1101     179.960 119.982 279.560  1.00  0.00     0.021 C 
ENDBRANCH   1  15
TORSDOF 6
ENDMDL
MODEL 18
REMARK VINA RESULT:    -3.524      1.570      2.003
REMARK INTER + INTRA:          -5.193
REMARK INTER:                  -4.558
REMARK INTRA:                  -0.635
REMARK UNBOUND:                -0.537
REMARK  6 active torsions:
REMARK  status: ('A' for Active; 'I' for Inactive)
REMARK    1  A    between atoms: C4_1  and  C1_10 
REMARK    2  A    between atoms: C4_1  and  O8_8 
REMARK    3  A    between atoms: C6_2  and  C2_15 
REMARK    4  A    between atoms: C6_2  and  N10_16 
REMARK    5  A    between atoms: C7_3  and  C11_12 
REMARK    6  A    between atoms: C12_7  and  O8_8 
ROOT
ATOM      1  C7  BOQ S1101     185.098 121.219 277.527  1.00  0.00     0.062 A 
ATOM      2  C1  BOQ S1101     184.682 121.684 279.572  1.00  0.00     0.073 A 
ATOM      3  C3  BOQ S1101     184.163 121.110 278.481  1.00  0.00     0.053 A 
ATOM      4  O5  BOQ S1101     186.201 121.864 277.994  1.00  0.00    -0.316 OA
ATOM      5  C2  BOQ S1101     185.950 122.170 279.284  1.00  0.00     0.097 A 
ENDROOT
BRANCH   2   6
ATOM      6  C4  BOQ S1101     184.001 121.814 280.933  1.00  0.00     0.295 C 
ATOM      7  O9  BOQ S1101     184.011 122.881 281.557  1.00  0.00    -0.259 OA
BRANCH   6   8
ATOM      8  O8  BOQ S1101     183.334 120.754 281.435  1.00  0.00    -0.318 OA
BRANCH   8   9
ATOM      9  C12 BOQ S1101     181.946 121.027 281.611  1.00  0.00     0.174 C 
ATOM     10  C16 BOQ S1101     181.212 119.954 280.822  1.00  0.00     0.034 C 
ENDBRANCH   8   9
ENDBRANCH   6   8
ENDBRANCH   2   6
BRANCH   5  11
ATOM     11  C6  BOQ S1101     186.983 122.908 280.150  1.00  0.00     0.332 C 
BRANCH  11  12
ATOM     12  N10 BOQ S1101     186.998 122.375 281.513  1.00  0.00     0.084 N 
ATOM     13  H   BOQ S1101     186.151 121.829 281.674  1.00  0.00     0.313 HD
ATOM     14  H   BOQ S1101     187.816 121.778 281.636  1.00  0.00     0.313 HD
ENDBRANCH  11  12
ENDBRANCH   5  11
BRANCH   1  15
ATOM     15  C11 BOQ S1101     185.037 120.742 276.073  1.00  0.00    -0.002 C 
ATOM     16  C13 BOQ S1101     185.343 119.244 275.985  1.00  0.00     0.021 C 
ATOM     17  C15 BOQ S1101     183.605 120.990 275.587  1.00  0.00     0.021 C 
ATOM     18  C14 BOQ S1101     186.013 121.553 275.209  1.00  0.00     0.021 C 
ENDBRANCH   1  15
TORSDOF 6
ENDMDL
MODEL 19
REMARK VINA RESULT:    -3.506      2.035      5.374
REMARK INTER + INTRA:          -5.170
REMARK INTER:                  -4.259
REMARK INTRA:                  -0.911
REMARK UNBOUND:                -0.537
REMARK  6 active torsions:
REMARK  status: ('A' for Active; 'I' for Inactive)
REMARK    1  A    between atoms: C4_1  and  C1_10 
REMARK    2  A    between atoms: C4_1  and  O8_8 
REMARK    3  A    between atoms: C6_2  and  C2_15 
REMARK    4  A    between atoms: C6_2  and  N10_16 
REMARK    5  A    between atoms: C7_3  and  C11_12 
REMARK    6  A    between atoms: C12_7  and  O8_8 
ROOT
ATOM      1  C7  BOQ S1101     183.202 120.600 279.259  1.00  0.00     0.062 A 
ATOM      2  C1  BOQ S1101     184.863 120.953 277.959  1.00  0.00     0.073 A 
ATOM      3  C3  BOQ S1101     183.670 120.351 278.028  1.00  0.00     0.053 A 
ATOM      4  O5  BOQ S1101     184.087 121.344 279.978  1.00  0.00    -0.316 OA
ATOM      5  C2  BOQ S1101     185.144 121.568 279.171  1.00  0.00     0.097 A 
ENDROOT
BRANCH   2   6
ATOM      6  C4  BOQ S1101     185.799 120.963 276.753  1.00  0.00     0.295 C 
ATOM      7  O9  BOQ S1101     186.220 119.911 276.258  1.00  0.00    -0.259 OA
BRANCH   6   8
ATOM      8  O8  BOQ S1101     186.129 122.144 276.190  1.00  0.00    -0.318 OA
BRANCH   8   9
ATOM      9  C12 BOQ S1101     185.711 122.225 274.829  1.00  0.00     0.174 C 
ATOM     10  C16 BOQ S1101     186.098 123.619 274.362  1.00  0.00     0.034 C 
ENDBRANCH   8   9
ENDBRANCH   6   8
ENDBRANCH   2   6
BRANCH   5  11
ATOM     11  C6  BOQ S1101     186.355 122.388 279.644  1.00  0.00     0.332 C 
BRANCH  11  12
ATOM     12  N10 BOQ S1101     186.612 123.509 278.739  1.00  0.00     0.084 N 
ATOM     13  H   BOQ S1101     186.884 123.151 277.823  1.00  0.00     0.313 HD
ATOM     14  H   BOQ S1101     185.767 124.073 278.646  1.00  0.00     0.313 HD
ENDBRANCH  11  12
ENDBRANCH   5  11
BRANCH   1  15
ATOM     15  C11 BOQ S1101     181.881 120.145 279.888  1.00  0.00    -0.002 C 
ATOM     16  C13 BOQ S1101     181.807 120.579 281.355  1.00  0.00     0.021 C 
ATOM     17  C15 BOQ S1101     180.759 120.835 279.105  1.00  0.00     0.021 C 
ATOM     18  C14 BOQ S1101     181.729 118.624 279.757  1.00  0.00     0.021 C 
ENDBRANCH   1  15
TORSDOF 6
ENDMDL
MODEL 20
REMARK VINA RESULT:    -3.422      2.167      5.145
REMARK INTER + INTRA:          -5.059
REMARK INTER:                  -4.335
REMARK INTRA:                  -0.723
REMARK UNBOUND:                -0.537
REMARK  6 active torsions:
REMARK  status: ('A' for Active; 'I' for Inactive)
REMARK    1  A    between atoms: C4_1  and  C1_10 
REMARK    2  A    between atoms: C4_1  and  O8_8 
REMARK    3  A    between atoms: C6_2  and  C2_15 
REMARK    4  A    between atoms: C6_2  and  N10_16 
REMARK    5  A    between atoms: C7_3  and  C11_12 
REMARK    6  A    between atoms: C12_7  and  O8_8 
ROOT
ATOM      1  C7  BOQ S1101     182.406 120.068 279.561  1.00  0.00     0.062 A 
ATOM      2  C1  BOQ S1101     184.133 121.167 278.946  1.00  0.00     0.073 A 
ATOM      3  C3  BOQ S1101     183.327 120.941 279.990  1.00  0.00     0.053 A 
ATOM      4  O5  BOQ S1101     182.608 119.745 278.254  1.00  0.00    -0.316 OA
ATOM      5  C2  BOQ S1101     183.693 120.438 277.851  1.00  0.00     0.097 A 
ENDROOT
BRANCH   2   6
ATOM      6  C4  BOQ S1101     185.347 122.094 278.929  1.00  0.00     0.295 C 
ATOM      7  O9  BOQ S1101     186.162 122.068 278.001  1.00  0.00    -0.259 OA
BRANCH   6   8
ATOM      8  O8  BOQ S1101     185.500 122.991 279.926  1.00  0.00    -0.318 OA
BRANCH   8   9
ATOM      9  C12 BOQ S1101     186.869 123.175 280.277  1.00  0.00     0.174 C 
ATOM     10  C16 BOQ S1101     186.973 122.789 281.744  1.00  0.00     0.034 C 
ENDBRANCH   8   9
ENDBRANCH   6   8
ENDBRANCH   2   6
BRANCH   5  11
ATOM     11  C6  BOQ S1101     184.232 120.321 276.417  1.00  0.00     0.332 C 
BRANCH  11  12
ATOM     12  N10 BOQ S1101     185.544 119.671 276.403  1.00  0.00     0.084 N 
ATOM     13  H   BOQ S1101     186.058 119.925 277.247  1.00  0.00     0.313 HD
ATOM     14  H   BOQ S1101     185.422 118.659 276.370  1.00  0.00     0.313 HD
ENDBRANCH  11  12
ENDBRANCH   5  11
BRANCH   1  15
ATOM     15  C11 BOQ S1101     181.228 119.466 280.334  1.00  0.00    -0.002 C 
ATOM     16  C13 BOQ S1101     181.240 119.945 281.790  1.00  0.00     0.021 C 
ATOM     17  C15 BOQ S1101     179.950 119.968 279.653  1.00  0.00     0.021 C 
ATOM     18  C14 BOQ S1101     181.274 117.934 280.260  1.00  0.00     0.021 C 
ENDBRANCH   1  15
TORSDOF 6
ENDMDL
MODEL 21
REMARK VINA RESULT:    -3.402      2.252      5.105
REMARK INTER + INTRA:          -5.032
REMARK INTER:                  -4.281
REMARK INTRA:                  -0.751
REMARK UNBOUND:                -0.537
REMARK  6 active torsions:
REMARK  status: ('A' for Active; 'I' for Inactive)
REMARK    1  A    between atoms: C4_1  and  C1_10 
REMARK    2  A    between atoms: C4_1  and  O8_8 
REMARK    3  A    between atoms: C6_2  and  C2_15 
REMARK    4  A    between atoms: C6_2  and  N10_16 
REMARK    5  A    between atoms: C7_3  and  C11_12 
REMARK    6  A    between atoms: C12_7  and  O8_8 
ROOT
ATOM      1  C7  BOQ S1101     182.548 120.168 279.407  1.00  0.00     0.062 A 
ATOM      2  C1  BOQ S1101     184.296 121.235 278.794  1.00  0.00     0.073 A 
ATOM      3  C3  BOQ S1101     183.468 121.047 279.828  1.00  0.00     0.053 A 
ATOM      4  O5  BOQ S1101     182.773 119.804 278.115  1.00  0.00    -0.316 OA
ATOM      5  C2  BOQ S1101     183.871 120.476 277.713  1.00  0.00     0.097 A 
ENDROOT
BRANCH   2   6
ATOM      6  C4  BOQ S1101     185.517 122.152 278.773  1.00  0.00     0.295 C 
ATOM      7  O9  BOQ S1101     186.362 122.076 277.874  1.00  0.00    -0.259 OA
BRANCH   6   8
ATOM      8  O8  BOQ S1101     185.645 123.094 279.730  1.00  0.00    -0.318 OA
BRANCH   8   9
ATOM      9  C12 BOQ S1101     186.982 123.191 280.214  1.00  0.00     0.174 C 
ATOM     10  C16 BOQ S1101     186.943 122.668 281.641  1.00  0.00     0.034 C 
ENDBRANCH   8   9
ENDBRANCH   6   8
ENDBRANCH   2   6
BRANCH   5  11
ATOM     11  C6  BOQ S1101     184.436 120.312 276.293  1.00  0.00     0.332 C 
BRANCH  11  12
ATOM     12  N10 BOQ S1101     185.724 119.616 276.321  1.00  0.00     0.084 N 
ATOM     13  H   BOQ S1101     185.802 119.012 275.503  1.00  0.00     0.313 HD
ATOM     14  H   BOQ S1101     186.481 120.300 276.312  1.00  0.00     0.313 HD
ENDBRANCH  11  12
ENDBRANCH   5  11
BRANCH   1  15
ATOM     15  C11 BOQ S1101     181.351 119.599 280.175  1.00  0.00    -0.002 C 
ATOM     16  C13 BOQ S1101     181.420 118.069 280.221  1.00  0.00     0.021 C 
ATOM     17  C15 BOQ S1101     181.442 120.147 281.604  1.00  0.00     0.021 C 
ATOM     18  C14 BOQ S1101     180.038 120.070 279.535  1.00  0.00     0.021 C 
ENDBRANCH   1  15
TORSDOF 6
ENDMDL
MODEL 22
REMARK VINA RESULT:    -3.278      0.818      1.459
REMARK INTER + INTRA:          -4.869
REMARK INTER:                  -5.787
REMARK INTRA:                   0.918
REMARK UNBOUND:                -0.537
REMARK  6 active torsions:
REMARK  status: ('A' for Active; 'I' for Inactive)
REMARK    1  A    between atoms: C4_1  and  C1_10 
REMARK    2  A    between atoms: C4_1  and  O8_8 
REMARK    3  A    between atoms: C6_2  and  C2_15 
REMARK    4  A    between atoms: C6_2  and  N10_16 
REMARK    5  A    between atoms: C7_3  and  C11_12 
REMARK    6  A    between atoms: C12_7  and  O8_8 
ROOT
ATOM      1  C7  BOQ S1101     183.575 120.526 277.403  1.00  0.00     0.062 A 
ATOM      2  C1  BOQ S1101     182.764 120.592 279.379  1.00  0.00     0.073 A 
ATOM      3  C3  BOQ S1101     182.551 120.101 278.153  1.00  0.00     0.053 A 
ATOM      4  O5  BOQ S1101     184.433 121.292 278.132  1.00  0.00    -0.316 OA
ATOM      5  C2  BOQ S1101     183.928 121.347 279.382  1.00  0.00     0.097 A 
ENDROOT
BRANCH   2   6
ATOM      6  C4  BOQ S1101     181.871 120.385 280.601  1.00  0.00     0.295 C 
ATOM      7  O9  BOQ S1101     180.881 121.097 280.802  1.00  0.00    -0.259 OA
BRANCH   6   8
ATOM      8  O8  BOQ S1101     182.145 119.371 281.448  1.00  0.00    -0.318 OA
BRANCH   8   9
ATOM      9  C12 BOQ S1101     181.004 118.552 281.692  1.00  0.00     0.174 C 
ATOM     10  C16 BOQ S1101     180.123 118.697 280.461  1.00  0.00     0.034 C 
ENDBRANCH   8   9
ENDBRANCH   6   8
ENDBRANCH   2   6
BRANCH   5  11
ATOM     11  C6  BOQ S1101     184.638 122.128 280.499  1.00  0.00     0.332 C 
BRANCH  11  12
ATOM     12  N10 BOQ S1101     183.800 122.202 281.698  1.00  0.00     0.084 N 
ATOM     13  H   BOQ S1101     184.123 122.966 282.292  1.00  0.00     0.313 HD
ATOM     14  H   BOQ S1101     182.831 122.368 281.426  1.00  0.00     0.313 HD
ENDBRANCH  11  12
ENDBRANCH   5  11
BRANCH   1  15
ATOM     15  C11 BOQ S1101     183.840 120.271 275.915  1.00  0.00    -0.002 C 
ATOM     16  C13 BOQ S1101     184.360 121.542 275.236  1.00  0.00     0.021 C 
ATOM     17  C15 BOQ S1101     184.919 119.185 275.839  1.00  0.00     0.021 C 
ATOM     18  C14 BOQ S1101     182.563 119.765 275.230  1.00  0.00     0.021 C 
ENDBRANCH   1  15
TORSDOF 6
ENDMDL
