MODEL 1
REMARK VINA RESULT:    -9.671      0.000      0.000
REMARK INTER + INTRA:         -12.562
REMARK INTER:                 -12.216
REMARK INTRA:                  -0.347
REMARK UNBOUND:                -0.347
REMARK  5 active torsions:
REMARK  status: ('A' for Active; 'I' for Inactive)
REMARK    1  A    between atoms: C14_5  and  N17_32 
REMARK    2  A    between atoms: C21_8  and  N23_38 
REMARK    3  A    between atoms: C24_9  and  N20_35 
REMARK    4  A    between atoms: C18_11  and  N17_32 
REMARK    5  A    between atoms: C06_16  and  N04_31 
ROOT
ATOM      1  C21 Q8U A 901      19.427 -15.353  19.640  1.00  0.00     0.714 A 
ATOM      2  C18 Q8U A 901      20.921 -15.061  21.105  1.00  0.00     0.712 A 
ATOM      3  N19 Q8U A 901      20.061 -14.047  21.289  1.00  0.00    -0.108 N 
ATOM      4  H19 Q8U A 901      20.125 -13.297  21.978  1.00  0.00     0.207 HD
ATOM      5  N20 Q8U A 901      19.125 -14.226  20.393  1.00  0.00    -0.054 N 
ATOM      6  N22 Q8U A 901      20.548 -15.868  20.071  1.00  0.00    -0.019 N 
ATOM      7  H22 Q8U A 901      21.035 -16.689  19.713  1.00  0.00     0.203 HD
ENDROOT
BRANCH   2   8
ATOM      8  N17 Q8U A 901      22.120 -15.301  21.873  1.00  0.00    -0.190 N 
ATOM      9  H   Q8U A 901      22.591 -16.141  21.672  1.00  0.00     0.184 HD
BRANCH   8  10
ATOM     10  C14 Q8U A 901      22.704 -14.505  22.862  1.00  0.00     0.049 A 
ATOM     11  C13 Q8U A 901      24.045 -14.864  23.237  1.00  0.00     0.037 A 
ATOM     12  C10 Q8U A 901      24.719 -14.126  24.255  1.00  0.00    -0.050 A 
ATOM     13  C11 Q8U A 901      26.163 -14.610  24.580  1.00  0.00     0.041 C 
ATOM     14  C09 Q8U A 901      24.083 -13.055  24.820  1.00  0.00    -0.052 A 
ATOM     15  C12 Q8U A 901      27.183 -13.600  24.252  1.00  0.00     0.037 C 
ATOM     16  C06 Q8U A 901      27.402 -12.438  25.294  1.00  0.00     0.188 C 
ATOM     17  C07 Q8U A 901      26.021 -11.489  25.262  1.00  0.00     0.037 C 
ATOM     18  C08 Q8U A 901      24.757 -12.163  25.858  1.00  0.00     0.041 C 
ATOM     19  C16 Q8U A 901      22.757 -12.676  24.427  1.00  0.00     0.010 A 
ATOM     20  C15 Q8U A 901      22.046 -13.408  23.454  1.00  0.00     0.030 A 
BRANCH  16  21
ATOM     21  N04 Q8U A 901      28.447 -11.798  24.977  1.00  0.00    -0.067 N 
ATOM     22  C03 Q8U A 901      29.124 -12.342  24.101  1.00  0.00     0.235 C 
ATOM     23  C02 Q8U A 901      29.996 -11.166  23.512  1.00  0.00     0.029 C 
ATOM     24  C01 Q8U A 901      29.093 -10.030  23.600  1.00  0.00     0.029 C 
ATOM     25  C05 Q8U A 901      28.113 -10.376  24.367  1.00  0.00     0.235 C 
ATOM     26  H   Q8U A 901      28.956 -11.747  25.860  1.00  0.00     0.280 HD
ENDBRANCH  16  21
ENDBRANCH   8  10
ENDBRANCH   2   8
BRANCH   1  27
ATOM     27  N23 Q8U A 901      18.682 -15.842  18.529  1.00  0.00    -0.232 N 
ATOM     28  H   Q8U A 901      18.926 -15.571  17.615  1.00  0.00     0.174 HD
ATOM     29  H   Q8U A 901      17.922 -16.452  18.675  1.00  0.00     0.174 HD
ENDBRANCH   1  27
BRANCH   5  30
ATOM     30  C24 Q8U A 901      17.986 -13.372  20.241  1.00  0.00     0.161 A 
ATOM     31  N25 Q8U A 901      16.888 -13.868  19.581  1.00  0.00    -0.283 N 
ATOM     32  N26 Q8U A 901      15.792 -13.104  19.515  1.00  0.00    -0.298 N 
ATOM     33  H25 Q8U A 901      16.907 -14.794  19.154  1.00  0.00     0.188 HD
ATOM     34  C27 Q8U A 901      15.803 -11.809  20.034  1.00  0.00     0.065 A 
ATOM     35  H26 Q8U A 901      14.944 -13.470  19.082  1.00  0.00     0.187 HD
ATOM     36  C38 Q8U A 901      14.544 -11.111  19.879  1.00  0.00    -0.001 A 
ATOM     37  C28 Q8U A 901      16.885 -11.285  20.680  1.00  0.00    -0.025 A 
ATOM     38  C33 Q8U A 901      13.979 -10.425  20.962  1.00  0.00    -0.046 A 
ATOM     39  C37 Q8U A 901      13.881 -11.172  18.632  1.00  0.00     0.014 A 
ATOM     40  C32 Q8U A 901      14.684 -10.466  22.351  1.00  0.00     0.040 C 
ATOM     41  C34 Q8U A 901      12.737  -9.798  20.836  1.00  0.00     0.008 A 
ATOM     42  C31 Q8U A 901      16.020  -9.716  22.400  1.00  0.00     0.009 C 
ATOM     43  C30 Q8U A 901      16.831  -9.846  21.173  1.00  0.00     0.041 C 
ATOM     44  C35 Q8U A 901      12.111  -9.806  19.621  1.00  0.00     0.001 A 
ATOM     45  C36 Q8U A 901      12.658 -10.513  18.519  1.00  0.00     0.001 A 
ATOM     46  C29 Q8U A 901      18.102 -12.091  20.805  1.00  0.00     0.062 A 
ENDBRANCH   5  30
TORSDOF 5
ENDMDL
MODEL 2
REMARK VINA RESULT:    -9.258      0.772      0.804
REMARK INTER + INTRA:         -12.040
REMARK INTER:                 -11.522
REMARK INTRA:                  -0.518
REMARK UNBOUND:                -0.347
REMARK  5 active torsions:
REMARK  status: ('A' for Active; 'I' for Inactive)
REMARK    1  A    between atoms: C14_5  and  N17_32 
REMARK    2  A    between atoms: C21_8  and  N23_38 
REMARK    3  A    between atoms: C24_9  and  N20_35 
REMARK    4  A    between atoms: C18_11  and  N17_32 
REMARK    5  A    between atoms: C06_16  and  N04_31 
ROOT
ATOM      1  C21 Q8U A 901      20.127 -15.309  20.238  1.00  0.00     0.714 A 
ATOM      2  C18 Q8U A 901      21.425 -15.014  21.879  1.00  0.00     0.712 A 
ATOM      3  N19 Q8U A 901      20.507 -14.042  21.992  1.00  0.00    -0.108 N 
ATOM      4  H19 Q8U A 901      20.456 -13.317  22.708  1.00  0.00     0.207 HD
ATOM      5  N20 Q8U A 901      19.690 -14.224  20.987  1.00  0.00    -0.054 N 
ATOM      6  N22 Q8U A 901      21.211 -15.796  20.782  1.00  0.00    -0.019 N 
ATOM      7  H22 Q8U A 901      21.773 -16.584  20.458  1.00  0.00     0.203 HD
ENDROOT
BRANCH   2   8
ATOM      8  N17 Q8U A 901      22.535 -15.235  22.775  1.00  0.00    -0.190 N 
ATOM      9  H   Q8U A 901      22.850 -16.165  22.838  1.00  0.00     0.184 HD
BRANCH   8  10
ATOM     10  C14 Q8U A 901      23.224 -14.311  23.566  1.00  0.00     0.049 A 
ATOM     11  C13 Q8U A 901      24.597 -14.634  23.846  1.00  0.00     0.037 A 
ATOM     12  C10 Q8U A 901      25.378 -13.765  24.664  1.00  0.00    -0.050 A 
ATOM     13  C11 Q8U A 901      26.848 -14.220  24.901  1.00  0.00     0.041 C 
ATOM     14  C09 Q8U A 901      24.809 -12.610  25.126  1.00  0.00    -0.052 A 
ATOM     15  C12 Q8U A 901      27.828 -13.289  24.319  1.00  0.00     0.037 C 
ATOM     16  C06 Q8U A 901      28.160 -11.988  25.145  1.00  0.00     0.188 C 
ATOM     17  C07 Q8U A 901      26.785 -11.031  25.119  1.00  0.00     0.037 C 
ATOM     18  C08 Q8U A 901      25.592 -11.586  25.941  1.00  0.00     0.041 C 
ATOM     19  C16 Q8U A 901      23.448 -12.271  24.824  1.00  0.00     0.010 A 
ATOM     20  C15 Q8U A 901      22.635 -13.127  24.053  1.00  0.00     0.030 A 
BRANCH  16  21
ATOM     21  N04 Q8U A 901      29.166 -11.421  24.627  1.00  0.00    -0.067 N 
ATOM     22  C03 Q8U A 901      29.616 -12.003  23.637  1.00  0.00     0.235 C 
ATOM     23  C02 Q8U A 901      30.438 -10.886  22.883  1.00  0.00     0.029 C 
ATOM     24  C01 Q8U A 901      29.654  -9.689  23.144  1.00  0.00     0.029 C 
ATOM     25  C05 Q8U A 901      28.823  -9.972  24.090  1.00  0.00     0.235 C 
ATOM     26  H   Q8U A 901      29.841 -11.417  25.392  1.00  0.00     0.280 HD
ENDBRANCH  16  21
ENDBRANCH   8  10
ENDBRANCH   2   8
BRANCH   1  27
ATOM     27  N23 Q8U A 901      19.539 -15.786  19.031  1.00  0.00    -0.232 N 
ATOM     28  H   Q8U A 901      18.933 -15.205  18.517  1.00  0.00     0.174 HD
ATOM     29  H   Q8U A 901      19.738 -16.696  18.712  1.00  0.00     0.174 HD
ENDBRANCH   1  27
BRANCH   5  30
ATOM     30  C24 Q8U A 901      18.541 -13.411  20.728  1.00  0.00     0.161 A 
ATOM     31  N25 Q8U A 901      17.415 -14.020  20.228  1.00  0.00    -0.283 N 
ATOM     32  N26 Q8U A 901      16.314 -13.278  20.069  1.00  0.00    -0.298 N 
ATOM     33  H25 Q8U A 901      17.419 -15.010  19.985  1.00  0.00     0.188 HD
ATOM     34  C27 Q8U A 901      16.342 -11.907  20.331  1.00  0.00     0.065 A 
ATOM     35  H26 Q8U A 901      15.448 -13.716  19.756  1.00  0.00     0.187 HD
ATOM     36  C38 Q8U A 901      15.073 -11.247  20.106  1.00  0.00    -0.001 A 
ATOM     37  C28 Q8U A 901      17.451 -11.274  20.813  1.00  0.00    -0.025 A 
ATOM     38  C33 Q8U A 901      14.557 -10.365  21.063  1.00  0.00    -0.046 A 
ATOM     39  C37 Q8U A 901      14.353 -11.542  18.926  1.00  0.00     0.014 A 
ATOM     40  C32 Q8U A 901      15.327 -10.143  22.400  1.00  0.00     0.040 C 
ATOM     41  C34 Q8U A 901      13.307  -9.768  20.880  1.00  0.00     0.008 A 
ATOM     42  C31 Q8U A 901      16.660  -9.403  22.241  1.00  0.00     0.009 C 
ATOM     43  C30 Q8U A 901      17.413  -9.768  21.025  1.00  0.00     0.041 C 
ATOM     44  C35 Q8U A 901      12.624 -10.006  19.719  1.00  0.00     0.001 A 
ATOM     45  C36 Q8U A 901      13.123 -10.912  18.748  1.00  0.00     0.001 A 
ATOM     46  C29 Q8U A 901      18.677 -12.046  21.032  1.00  0.00     0.062 A 
ENDBRANCH   5  30
TORSDOF 5
ENDMDL
MODEL 3
REMARK VINA RESULT:    -8.509      3.515      6.161
REMARK INTER + INTRA:         -11.094
REMARK INTER:                 -10.878
REMARK INTRA:                  -0.216
REMARK UNBOUND:                -0.347
REMARK  5 active torsions:
REMARK  status: ('A' for Active; 'I' for Inactive)
REMARK    1  A    between atoms: C14_5  and  N17_32 
REMARK    2  A    between atoms: C21_8  and  N23_38 
REMARK    3  A    between atoms: C24_9  and  N20_35 
REMARK    4  A    between atoms: C18_11  and  N17_32 
REMARK    5  A    between atoms: C06_16  and  N04_31 
ROOT
ATOM      1  C21 Q8U A 901      21.947  -8.830  24.231  1.00  0.00     0.714 A 
ATOM      2  C18 Q8U A 901      23.741  -9.328  25.231  1.00  0.00     0.712 A 
ATOM      3  N19 Q8U A 901      23.331 -10.478  24.674  1.00  0.00    -0.108 N 
ATOM      4  H19 Q8U A 901      23.783 -11.391  24.731  1.00  0.00     0.207 HD
ATOM      5  N20 Q8U A 901      22.227 -10.177  24.041  1.00  0.00    -0.054 N 
ATOM      6  N22 Q8U A 901      22.879  -8.301  24.980  1.00  0.00    -0.019 N 
ATOM      7  H22 Q8U A 901      22.946  -7.337  25.304  1.00  0.00     0.203 HD
ENDROOT
BRANCH   2   8
ATOM      8  N17 Q8U A 901      24.934  -9.153  26.025  1.00  0.00    -0.190 N 
ATOM      9  H   Q8U A 901      25.086  -8.243  26.366  1.00  0.00     0.184 HD
BRANCH   8  10
ATOM     10  C14 Q8U A 901      25.903 -10.097  26.375  1.00  0.00     0.049 A 
ATOM     11  C13 Q8U A 901      25.650 -11.441  25.930  1.00  0.00     0.037 A 
ATOM     12  C10 Q8U A 901      26.569 -12.482  26.258  1.00  0.00    -0.050 A 
ATOM     13  C11 Q8U A 901      26.187 -13.895  25.726  1.00  0.00     0.041 C 
ATOM     14  C09 Q8U A 901      27.702 -12.163  26.953  1.00  0.00    -0.052 A 
ATOM     15  C12 Q8U A 901      27.155 -14.408  24.741  1.00  0.00     0.037 C 
ATOM     16  C06 Q8U A 901      28.483 -15.043  25.304  1.00  0.00     0.188 C 
ATOM     17  C07 Q8U A 901      29.373 -13.792  25.976  1.00  0.00     0.037 C 
ATOM     18  C08 Q8U A 901      28.776 -13.197  27.278  1.00  0.00     0.041 C 
ATOM     19  C16 Q8U A 901      27.972 -10.818  27.372  1.00  0.00     0.010 A 
ATOM     20  C15 Q8U A 901      27.065  -9.773  27.102  1.00  0.00     0.030 A 
BRANCH  16  21
ATOM     21  N04 Q8U A 901      29.088 -15.627  24.359  1.00  0.00    -0.067 N 
ATOM     22  C03 Q8U A 901      30.165 -15.108  24.054  1.00  0.00     0.235 C 
ATOM     23  C02 Q8U A 901      30.943 -16.260  23.306  1.00  0.00     0.029 C 
ATOM     24  C01 Q8U A 901      30.503 -17.449  24.019  1.00  0.00     0.029 C 
ATOM     25  C05 Q8U A 901      29.478 -17.115  24.729  1.00  0.00     0.235 C 
ATOM     26  H   Q8U A 901      28.419 -15.566  23.591  1.00  0.00     0.280 HD
ENDBRANCH  16  21
ENDBRANCH   8  10
ENDBRANCH   2   8
BRANCH   1  27
ATOM     27  N23 Q8U A 901      20.798  -8.137  23.753  1.00  0.00    -0.232 N 
ATOM     28  H   Q8U A 901      20.770  -7.154  23.781  1.00  0.00     0.174 HD
ATOM     29  H   Q8U A 901      20.033  -8.642  23.394  1.00  0.00     0.174 HD
ENDBRANCH   1  27
BRANCH   5  30
ATOM     30  C24 Q8U A 901      21.452 -11.116  23.287  1.00  0.00     0.161 A 
ATOM     31  N25 Q8U A 901      20.500 -10.626  22.426  1.00  0.00    -0.283 N 
ATOM     32  N26 Q8U A 901      19.837 -11.497  21.656  1.00  0.00    -0.298 N 
ATOM     33  H25 Q8U A 901      20.303  -9.627  22.375  1.00  0.00     0.188 HD
ATOM     34  C27 Q8U A 901      20.058 -12.868  21.791  1.00  0.00     0.065 A 
ATOM     35  H26 Q8U A 901      19.167 -11.156  20.968  1.00  0.00     0.187 HD
ATOM     36  C38 Q8U A 901      19.261 -13.674  20.891  1.00  0.00    -0.001 A 
ATOM     37  C28 Q8U A 901      20.986 -13.382  22.648  1.00  0.00    -0.025 A 
ATOM     38  C33 Q8U A 901      19.855 -14.705  20.151  1.00  0.00    -0.046 A 
ATOM     39  C37 Q8U A 901      17.887 -13.376  20.745  1.00  0.00     0.014 A 
ATOM     40  C32 Q8U A 901      21.393 -14.940  20.258  1.00  0.00     0.040 C 
ATOM     41  C34 Q8U A 901      19.105 -15.450  19.238  1.00  0.00     0.008 A 
ATOM     42  C31 Q8U A 901      21.855 -15.469  21.620  1.00  0.00     0.009 C 
ATOM     43  C30 Q8U A 901      21.130 -14.892  22.769  1.00  0.00     0.041 C 
ATOM     44  C35 Q8U A 901      17.764 -15.204  19.126  1.00  0.00     0.001 A 
ATOM     45  C36 Q8U A 901      17.150 -14.152  19.852  1.00  0.00     0.001 A 
ATOM     46  C29 Q8U A 901      21.760 -12.470  23.495  1.00  0.00     0.062 A 
ENDBRANCH   5  30
TORSDOF 5
ENDMDL
MODEL 4
REMARK VINA RESULT:    -8.430      3.555      6.267
REMARK INTER + INTRA:         -10.994
REMARK INTER:                 -10.552
REMARK INTRA:                  -0.442
REMARK UNBOUND:                -0.347
REMARK  5 active torsions:
REMARK  status: ('A' for Active; 'I' for Inactive)
REMARK    1  A    between atoms: C14_5  and  N17_32 
REMARK    2  A    between atoms: C21_8  and  N23_38 
REMARK    3  A    between atoms: C24_9  and  N20_35 
REMARK    4  A    between atoms: C18_11  and  N17_32 
REMARK    5  A    between atoms: C06_16  and  N04_31 
ROOT
ATOM      1  C21 Q8U A 901      21.852  -8.595  24.310  1.00  0.00     0.714 A 
ATOM      2  C18 Q8U A 901      23.259  -9.049  25.820  1.00  0.00     0.712 A 
ATOM      3  N19 Q8U A 901      22.890 -10.242  25.329  1.00  0.00    -0.108 N 
ATOM      4  H19 Q8U A 901      23.212 -11.162  25.629  1.00  0.00     0.207 HD
ATOM      5  N20 Q8U A 901      22.027  -9.971  24.384  1.00  0.00    -0.054 N 
ATOM      6  N22 Q8U A 901      22.606  -8.019  25.209  1.00  0.00    -0.019 N 
ATOM      7  H22 Q8U A 901      22.688  -7.022  25.408  1.00  0.00     0.203 HD
ENDROOT
BRANCH   2   8
ATOM      8  N17 Q8U A 901      24.215  -8.831  26.881  1.00  0.00    -0.190 N 
ATOM      9  H   Q8U A 901      23.915  -8.239  27.606  1.00  0.00     0.184 HD
BRANCH   8  10
ATOM     10  C14 Q8U A 901      25.506  -9.347  27.019  1.00  0.00     0.049 A 
ATOM     11  C13 Q8U A 901      25.830 -10.451  26.157  1.00  0.00     0.037 A 
ATOM     12  C10 Q8U A 901      27.116 -11.062  26.239  1.00  0.00    -0.050 A 
ATOM     13  C11 Q8U A 901      27.350 -12.251  25.261  1.00  0.00     0.041 C 
ATOM     14  C09 Q8U A 901      28.034 -10.545  27.111  1.00  0.00    -0.052 A 
ATOM     15  C12 Q8U A 901      28.402 -11.968  24.270  1.00  0.00     0.037 C 
ATOM     16  C06 Q8U A 901      29.896 -12.140  24.742  1.00  0.00     0.188 C 
ATOM     17  C07 Q8U A 901      30.197 -10.924  25.855  1.00  0.00     0.037 C 
ATOM     18  C08 Q8U A 901      29.458 -11.085  27.209  1.00  0.00     0.041 C 
ATOM     19  C16 Q8U A 901      27.724  -9.425  27.951  1.00  0.00     0.010 A 
ATOM     20  C15 Q8U A 901      26.449  -8.824  27.926  1.00  0.00     0.030 A 
BRANCH  16  21
ATOM     21  N04 Q8U A 901      30.653 -12.080  23.729  1.00  0.00    -0.067 N 
ATOM     22  C03 Q8U A 901      30.811 -10.940  23.286  1.00  0.00     0.235 C 
ATOM     23  C02 Q8U A 901      32.146 -11.041  22.450  1.00  0.00     0.029 C 
ATOM     24  C01 Q8U A 901      32.927 -11.996  23.220  1.00  0.00     0.029 C 
ATOM     25  C05 Q8U A 901      32.124 -12.567  24.055  1.00  0.00     0.235 C 
ATOM     26  H   Q8U A 901      30.173 -12.676  23.054  1.00  0.00     0.280 HD
ENDBRANCH  16  21
ENDBRANCH   8  10
ENDBRANCH   2   8
BRANCH   1  27
ATOM     27  N23 Q8U A 901      20.949  -7.911  23.447  1.00  0.00    -0.232 N 
ATOM     28  H   Q8U A 901      20.744  -6.961  23.603  1.00  0.00     0.174 HD
ATOM     29  H   Q8U A 901      20.530  -8.388  22.695  1.00  0.00     0.174 HD
ENDBRANCH   1  27
BRANCH   5  30
ATOM     30  C24 Q8U A 901      21.382 -10.962  23.577  1.00  0.00     0.161 A 
ATOM     31  N25 Q8U A 901      20.444 -10.545  22.665  1.00  0.00    -0.283 N 
ATOM     32  N26 Q8U A 901      19.905 -11.459  21.850  1.00  0.00    -0.298 N 
ATOM     33  H25 Q8U A 901      20.165  -9.565  22.611  1.00  0.00     0.188 HD
ATOM     34  C27 Q8U A 901      20.235 -12.807  21.986  1.00  0.00     0.065 A 
ATOM     35  H26 Q8U A 901      19.250 -11.167  21.126  1.00  0.00     0.187 HD
ATOM     36  C38 Q8U A 901      19.565 -13.667  21.034  1.00  0.00    -0.001 A 
ATOM     37  C28 Q8U A 901      21.152 -13.252  22.894  1.00  0.00    -0.025 A 
ATOM     38  C33 Q8U A 901      20.289 -14.633  20.323  1.00  0.00    -0.046 A 
ATOM     39  C37 Q8U A 901      18.181 -13.485  20.809  1.00  0.00     0.014 A 
ATOM     40  C32 Q8U A 901      21.832 -14.737  20.519  1.00  0.00     0.040 C 
ATOM     41  C34 Q8U A 901      19.660 -15.428  19.361  1.00  0.00     0.008 A 
ATOM     42  C31 Q8U A 901      22.256 -15.243  21.902  1.00  0.00     0.009 C 
ATOM     43  C30 Q8U A 901      21.418 -14.745  23.011  1.00  0.00     0.041 C 
ATOM     44  C35 Q8U A 901      18.312 -15.296  19.171  1.00  0.00     0.001 A 
ATOM     45  C36 Q8U A 901      17.567 -14.310  19.868  1.00  0.00     0.001 A 
ATOM     46  C29 Q8U A 901      21.793 -12.288  23.793  1.00  0.00     0.062 A 
ENDBRANCH   5  30
TORSDOF 5
ENDMDL
MODEL 5
REMARK VINA RESULT:    -7.728      2.048     12.003
REMARK INTER + INTRA:         -10.108
REMARK INTER:                 -10.499
REMARK INTRA:                   0.391
REMARK UNBOUND:                -0.347
REMARK  5 active torsions:
REMARK  status: ('A' for Active; 'I' for Inactive)
REMARK    1  A    between atoms: C14_5  and  N17_32 
REMARK    2  A    between atoms: C21_8  and  N23_38 
REMARK    3  A    between atoms: C24_9  and  N20_35 
REMARK    4  A    between atoms: C18_11  and  N17_32 
REMARK    5  A    between atoms: C06_16  and  N04_31 
ROOT
ATOM      1  C21 Q8U A 901      21.856 -13.276  23.273  1.00  0.00     0.714 A 
ATOM      2  C18 Q8U A 901      21.485 -14.262  21.441  1.00  0.00     0.712 A 
ATOM      3  N19 Q8U A 901      22.696 -14.697  21.823  1.00  0.00    -0.108 N 
ATOM      4  H19 Q8U A 901      23.304 -15.352  21.330  1.00  0.00     0.207 HD
ATOM      5  N20 Q8U A 901      22.929 -14.102  22.964  1.00  0.00    -0.054 N 
ATOM      6  N22 Q8U A 901      20.962 -13.363  22.324  1.00  0.00    -0.019 N 
ATOM      7  H22 Q8U A 901      20.072 -12.869  22.257  1.00  0.00     0.203 HD
ENDROOT
BRANCH   2   8
ATOM      8  N17 Q8U A 901      20.788 -14.654  20.239  1.00  0.00    -0.190 N 
ATOM      9  H   Q8U A 901      21.356 -15.003  19.515  1.00  0.00     0.184 HD
BRANCH   8  10
ATOM     10  C14 Q8U A 901      19.419 -14.607  19.962  1.00  0.00     0.049 A 
ATOM     11  C13 Q8U A 901      18.675 -13.606  20.677  1.00  0.00     0.037 A 
ATOM     12  C10 Q8U A 901      17.266 -13.493  20.481  1.00  0.00    -0.050 A 
ATOM     13  C11 Q8U A 901      16.568 -12.377  21.311  1.00  0.00     0.041 C 
ATOM     14  C09 Q8U A 901      16.662 -14.318  19.573  1.00  0.00    -0.052 A 
ATOM     15  C12 Q8U A 901      15.989 -11.321  20.463  1.00  0.00     0.037 C 
ATOM     16  C06 Q8U A 901      14.592 -11.620  19.799  1.00  0.00     0.188 C 
ATOM     17  C07 Q8U A 901      14.843 -12.819  18.656  1.00  0.00     0.037 C 
ATOM     18  C08 Q8U A 901      15.176 -14.216  19.242  1.00  0.00     0.041 C 
ATOM     19  C16 Q8U A 901      17.407 -15.299  18.837  1.00  0.00     0.010 A 
ATOM     20  C15 Q8U A 901      18.793 -15.465  19.037  1.00  0.00     0.030 A 
BRANCH  16  21
ATOM     21  N04 Q8U A 901      14.140 -10.548  19.300  1.00  0.00    -0.067 N 
ATOM     22  C03 Q8U A 901      13.241 -10.718  18.473  1.00  0.00     0.235 C 
ATOM     23  C02 Q8U A 901      12.501  -9.325  18.426  1.00  0.00     0.029 C 
ATOM     24  C01 Q8U A 901      12.602  -8.869  19.803  1.00  0.00     0.029 C 
ATOM     25  C05 Q8U A 901      13.478  -9.614  20.392  1.00  0.00     0.235 C 
ATOM     26  H   Q8U A 901      14.967 -10.136  18.866  1.00  0.00     0.280 HD
ENDBRANCH  16  21
ENDBRANCH   8  10
ENDBRANCH   2   8
BRANCH   1  27
ATOM     27  N23 Q8U A 901      21.760 -12.415  24.403  1.00  0.00    -0.232 N 
ATOM     28  H   Q8U A 901      21.062 -11.721  24.436  1.00  0.00     0.174 HD
ATOM     29  H   Q8U A 901      22.392 -12.512  25.152  1.00  0.00     0.174 HD
ENDBRANCH   1  27
BRANCH   5  30
ATOM     30  C24 Q8U A 901      24.117 -14.292  23.741  1.00  0.00     0.161 A 
ATOM     31  N25 Q8U A 901      25.099 -15.107  23.233  1.00  0.00    -0.283 N 
ATOM     32  N26 Q8U A 901      26.245 -15.215  23.916  1.00  0.00    -0.298 N 
ATOM     33  H25 Q8U A 901      24.960 -15.616  22.361  1.00  0.00     0.188 HD
ATOM     34  C27 Q8U A 901      26.395 -14.578  25.148  1.00  0.00     0.065 A 
ATOM     35  H26 Q8U A 901      27.012 -15.767  23.533  1.00  0.00     0.187 HD
ATOM     36  C38 Q8U A 901      27.689 -14.797  25.760  1.00  0.00    -0.001 A 
ATOM     37  C28 Q8U A 901      25.430 -13.774  25.682  1.00  0.00    -0.025 A 
ATOM     38  C33 Q8U A 901      28.413 -13.719  26.287  1.00  0.00    -0.046 A 
ATOM     39  C37 Q8U A 901      28.220 -16.107  25.779  1.00  0.00     0.014 A 
ATOM     40  C32 Q8U A 901      27.845 -12.273  26.156  1.00  0.00     0.040 C 
ATOM     41  C34 Q8U A 901      29.686 -13.914  26.828  1.00  0.00     0.008 A 
ATOM     42  C31 Q8U A 901      26.589 -12.014  26.996  1.00  0.00     0.009 C 
ATOM     43  C30 Q8U A 901      25.655 -13.155  27.054  1.00  0.00     0.041 C 
ATOM     44  C35 Q8U A 901      30.188 -15.185  26.897  1.00  0.00     0.001 A 
ATOM     45  C36 Q8U A 901      29.478 -16.284  26.351  1.00  0.00     0.001 A 
ATOM     46  C29 Q8U A 901      24.166 -13.599  24.962  1.00  0.00     0.062 A 
ENDBRANCH   5  30
TORSDOF 5
ENDMDL
MODEL 6
REMARK VINA RESULT:    -7.475      1.303      2.176
REMARK INTER + INTRA:          -9.789
REMARK INTER:                  -9.414
REMARK INTRA:                  -0.374
REMARK UNBOUND:                -0.347
REMARK  5 active torsions:
REMARK  status: ('A' for Active; 'I' for Inactive)
REMARK    1  A    between atoms: C14_5  and  N17_32 
REMARK    2  A    between atoms: C21_8  and  N23_38 
REMARK    3  A    between atoms: C24_9  and  N20_35 
REMARK    4  A    between atoms: C18_11  and  N17_32 
REMARK    5  A    between atoms: C06_16  and  N04_31 
ROOT
ATOM      1  C21 Q8U A 901      20.668 -15.092  20.337  1.00  0.00     0.714 A 
ATOM      2  C18 Q8U A 901      21.989 -14.898  21.974  1.00  0.00     0.712 A 
ATOM      3  N19 Q8U A 901      21.001 -14.027  22.230  1.00  0.00    -0.108 N 
ATOM      4  H19 Q8U A 901      20.915 -13.404  23.033  1.00  0.00     0.207 HD
ATOM      5  N20 Q8U A 901      20.170 -14.149  21.226  1.00  0.00    -0.054 N 
ATOM      6  N22 Q8U A 901      21.804 -15.551  20.791  1.00  0.00    -0.019 N 
ATOM      7  H22 Q8U A 901      22.416 -16.243  20.358  1.00  0.00     0.203 HD
ENDROOT
BRANCH   2   8
ATOM      8  N17 Q8U A 901      23.141 -15.137  22.812  1.00  0.00    -0.190 N 
ATOM      9  H   Q8U A 901      23.515 -16.046  22.769  1.00  0.00     0.184 HD
BRANCH   8  10
ATOM     10  C14 Q8U A 901      23.797 -14.255  23.675  1.00  0.00     0.049 A 
ATOM     11  C13 Q8U A 901      25.207 -14.484  23.842  1.00  0.00     0.037 A 
ATOM     12  C10 Q8U A 901      25.963 -13.652  24.721  1.00  0.00    -0.050 A 
ATOM     13  C11 Q8U A 901      27.477 -13.998  24.823  1.00  0.00     0.041 C 
ATOM     14  C09 Q8U A 901      25.329 -12.617  25.351  1.00  0.00    -0.052 A 
ATOM     15  C12 Q8U A 901      28.339 -12.919  24.312  1.00  0.00     0.037 C 
ATOM     16  C06 Q8U A 901      28.612 -11.702  25.276  1.00  0.00     0.188 C 
ATOM     17  C07 Q8U A 901      27.162 -10.877  25.439  1.00  0.00     0.037 C 
ATOM     18  C08 Q8U A 901      26.073 -11.631  26.246  1.00  0.00     0.041 C 
ATOM     19  C16 Q8U A 901      23.929 -12.368  25.164  1.00  0.00     0.010 A 
ATOM     20  C15 Q8U A 901      23.144 -13.196  24.335  1.00  0.00     0.030 A 
BRANCH  16  21
ATOM     21  N04 Q8U A 901      29.532 -10.989  24.781  1.00  0.00    -0.067 N 
ATOM     22  C03 Q8U A 901      30.147 -11.529  23.859  1.00  0.00     0.235 C 
ATOM     23  C02 Q8U A 901      30.805 -10.322  23.083  1.00  0.00     0.029 C 
ATOM     24  C01 Q8U A 901      29.803  -9.278  23.219  1.00  0.00     0.029 C 
ATOM     25  C05 Q8U A 901      28.972  -9.658  24.133  1.00  0.00     0.235 C 
ATOM     26  H   Q8U A 901      30.142 -10.820  25.582  1.00  0.00     0.280 HD
ENDBRANCH  16  21
ENDBRANCH   8  10
ENDBRANCH   2   8
BRANCH   1  27
ATOM     27  N23 Q8U A 901      20.083 -15.460  19.092  1.00  0.00    -0.232 N 
ATOM     28  H   Q8U A 901      19.400 -16.168  19.059  1.00  0.00     0.174 HD
ATOM     29  H   Q8U A 901      20.361 -15.007  18.263  1.00  0.00     0.174 HD
ENDBRANCH   1  27
BRANCH   5  30
ATOM     30  C24 Q8U A 901      18.952 -13.407  21.097  1.00  0.00     0.161 A 
ATOM     31  N25 Q8U A 901      19.006 -12.043  21.253  1.00  0.00    -0.283 N 
ATOM     32  N26 Q8U A 901      17.886 -11.340  21.046  1.00  0.00    -0.298 N 
ATOM     33  H25 Q8U A 901      19.874 -11.579  21.519  1.00  0.00     0.188 HD
ATOM     34  C27 Q8U A 901      16.686 -11.992  20.759  1.00  0.00     0.065 A 
ATOM     35  H26 Q8U A 901      17.911 -10.322  21.097  1.00  0.00     0.187 HD
ATOM     36  C38 Q8U A 901      15.569 -11.092  20.567  1.00  0.00    -0.001 A 
ATOM     37  C28 Q8U A 901      16.602 -13.346  20.615  1.00  0.00    -0.025 A 
ATOM     38  C33 Q8U A 901      14.714 -11.252  19.469  1.00  0.00    -0.046 A 
ATOM     39  C37 Q8U A 901      15.385 -10.030  21.482  1.00  0.00     0.014 A 
ATOM     40  C32 Q8U A 901      15.007 -12.369  18.422  1.00  0.00     0.040 C 
ATOM     41  C34 Q8U A 901      13.667 -10.354  19.245  1.00  0.00     0.008 A 
ATOM     42  C31 Q8U A 901      14.812 -13.794  18.953  1.00  0.00     0.009 C 
ATOM     43  C30 Q8U A 901      15.245 -13.982  20.351  1.00  0.00     0.041 C 
ATOM     44  C35 Q8U A 901      13.449  -9.353  20.152  1.00  0.00     0.001 A 
ATOM     45  C36 Q8U A 901      14.316  -9.164  21.258  1.00  0.00     0.001 A 
ATOM     46  C29 Q8U A 901      17.805 -14.162  20.804  1.00  0.00     0.062 A 
ENDBRANCH   5  30
TORSDOF 5
ENDMDL
MODEL 7
REMARK VINA RESULT:    -7.462      2.677      5.084
REMARK INTER + INTRA:          -9.771
REMARK INTER:                  -9.598
REMARK INTRA:                  -0.173
REMARK UNBOUND:                -0.347
REMARK  5 active torsions:
REMARK  status: ('A' for Active; 'I' for Inactive)
REMARK    1  A    between atoms: C14_5  and  N17_32 
REMARK    2  A    between atoms: C21_8  and  N23_38 
REMARK    3  A    between atoms: C24_9  and  N20_35 
REMARK    4  A    between atoms: C18_11  and  N17_32 
REMARK    5  A    between atoms: C06_16  and  N04_31 
ROOT
ATOM      1  C21 Q8U A 901      21.295  -9.940  23.851  1.00  0.00     0.714 A 
ATOM      2  C18 Q8U A 901      23.085 -10.788  24.588  1.00  0.00     0.712 A 
ATOM      3  N19 Q8U A 901      22.562 -11.734  23.793  1.00  0.00    -0.108 N 
ATOM      4  H19 Q8U A 901      22.942 -12.660  23.599  1.00  0.00     0.207 HD
ATOM      5  N20 Q8U A 901      21.459 -11.213  23.321  1.00  0.00    -0.054 N 
ATOM      6  N22 Q8U A 901      22.297  -9.676  24.648  1.00  0.00    -0.019 N 
ATOM      7  H22 Q8U A 901      22.454  -8.828  25.193  1.00  0.00     0.203 HD
ENDROOT
BRANCH   2   8
ATOM      8  N17 Q8U A 901      24.320 -10.895  25.327  1.00  0.00    -0.190 N 
ATOM      9  H   Q8U A 901      24.225 -11.090  26.287  1.00  0.00     0.184 HD
BRANCH   8  10
ATOM     10  C14 Q8U A 901      25.633 -10.760  24.868  1.00  0.00     0.049 A 
ATOM     11  C13 Q8U A 901      26.614 -11.565  25.546  1.00  0.00     0.037 A 
ATOM     12  C10 Q8U A 901      27.986 -11.481  25.166  1.00  0.00    -0.050 A 
ATOM     13  C11 Q8U A 901      28.955 -12.395  25.973  1.00  0.00     0.041 C 
ATOM     14  C09 Q8U A 901      28.331 -10.665  24.125  1.00  0.00    -0.052 A 
ATOM     15  C12 Q8U A 901      29.587 -13.427  25.135  1.00  0.00     0.037 C 
ATOM     16  C06 Q8U A 901      30.824 -12.985  24.264  1.00  0.00     0.188 C 
ATOM     17  C07 Q8U A 901      30.241 -11.952  23.080  1.00  0.00     0.037 C 
ATOM     18  C08 Q8U A 901      29.761 -10.572  23.601  1.00  0.00     0.041 C 
ATOM     19  C16 Q8U A 901      27.351  -9.883  23.428  1.00  0.00     0.010 A 
ATOM     20  C15 Q8U A 901      25.992  -9.910  23.804  1.00  0.00     0.030 A 
BRANCH  16  21
ATOM     21  N04 Q8U A 901      31.378 -14.018  23.788  1.00  0.00    -0.067 N 
ATOM     22  C03 Q8U A 901      32.160 -14.573  24.564  1.00  0.00     0.235 C 
ATOM     23  C02 Q8U A 901      32.274 -16.043  24.001  1.00  0.00     0.029 C 
ATOM     24  C01 Q8U A 901      30.934 -16.289  23.492  1.00  0.00     0.029 C 
ATOM     25  C05 Q8U A 901      30.328 -15.150  23.438  1.00  0.00     0.235 C 
ATOM     26  H   Q8U A 901      31.866 -13.656  22.969  1.00  0.00     0.280 HD
ENDBRANCH  16  21
ENDBRANCH   8  10
ENDBRANCH   2   8
BRANCH   1  27
ATOM     27  N23 Q8U A 901      20.186  -9.074  23.626  1.00  0.00    -0.232 N 
ATOM     28  H   Q8U A 901      20.303  -8.099  23.685  1.00  0.00     0.174 HD
ATOM     29  H   Q8U A 901      19.303  -9.452  23.411  1.00  0.00     0.174 HD
ENDBRANCH   1  27
BRANCH   5  30
ATOM     30  C24 Q8U A 901      20.581 -11.881  22.409  1.00  0.00     0.161 A 
ATOM     31  N25 Q8U A 901      20.714 -13.241  22.261  1.00  0.00    -0.283 N 
ATOM     32  N26 Q8U A 901      19.838 -13.879  21.477  1.00  0.00    -0.298 N 
ATOM     33  H25 Q8U A 901      21.459 -13.750  22.736  1.00  0.00     0.188 HD
ATOM     34  C27 Q8U A 901      18.871 -13.163  20.770  1.00  0.00     0.065 A 
ATOM     35  H26 Q8U A 901      19.877 -14.895  21.396  1.00  0.00     0.187 HD
ATOM     36  C38 Q8U A 901      18.005 -13.997  19.964  1.00  0.00    -0.001 A 
ATOM     37  C28 Q8U A 901      18.727 -11.811  20.886  1.00  0.00    -0.025 A 
ATOM     38  C33 Q8U A 901      16.616 -13.817  20.002  1.00  0.00    -0.046 A 
ATOM     39  C37 Q8U A 901      18.584 -15.018  19.176  1.00  0.00     0.014 A 
ATOM     40  C32 Q8U A 901      16.004 -12.752  20.962  1.00  0.00     0.040 C 
ATOM     41  C34 Q8U A 901      15.770 -14.655  19.271  1.00  0.00     0.008 A 
ATOM     42  C31 Q8U A 901      16.317 -11.303  20.573  1.00  0.00     0.009 C 
ATOM     43  C30 Q8U A 901      17.679 -11.100  20.042  1.00  0.00     0.041 C 
ATOM     44  C35 Q8U A 901      16.321 -15.613  18.465  1.00  0.00     0.001 A 
ATOM     45  C36 Q8U A 901      17.724 -15.822  18.430  1.00  0.00     0.001 A 
ATOM     46  C29 Q8U A 901      19.643 -11.066  21.754  1.00  0.00     0.062 A 
ENDBRANCH   5  30
TORSDOF 5
ENDMDL
MODEL 8
REMARK VINA RESULT:    -7.271      2.831      4.834
REMARK INTER + INTRA:          -9.531
REMARK INTER:                  -8.987
REMARK INTRA:                  -0.544
REMARK UNBOUND:                -0.347
REMARK  5 active torsions:
REMARK  status: ('A' for Active; 'I' for Inactive)
REMARK    1  A    between atoms: C14_5  and  N17_32 
REMARK    2  A    between atoms: C21_8  and  N23_38 
REMARK    3  A    between atoms: C24_9  and  N20_35 
REMARK    4  A    between atoms: C18_11  and  N17_32 
REMARK    5  A    between atoms: C06_16  and  N04_31 
ROOT
ATOM      1  C21 Q8U A 901      20.054  -9.571  24.232  1.00  0.00     0.714 A 
ATOM      2  C18 Q8U A 901      22.163  -9.569  24.376  1.00  0.00     0.712 A 
ATOM      3  N19 Q8U A 901      21.888 -10.449  23.400  1.00  0.00    -0.108 N 
ATOM      4  H19 Q8U A 901      22.553 -11.001  22.857  1.00  0.00     0.207 HD
ATOM      5  N20 Q8U A 901      20.585 -10.448  23.295  1.00  0.00    -0.054 N 
ATOM      6  N22 Q8U A 901      21.031  -9.032  24.914  1.00  0.00    -0.019 N 
ATOM      7  H22 Q8U A 901      20.961  -8.360  25.678  1.00  0.00     0.203 HD
ENDROOT
BRANCH   2   8
ATOM      8  N17 Q8U A 901      23.481  -9.215  24.846  1.00  0.00    -0.190 N 
ATOM      9  H   Q8U A 901      23.724  -8.266  24.751  1.00  0.00     0.184 HD
BRANCH   8  10
ATOM     10  C14 Q8U A 901      24.459 -10.033  25.418  1.00  0.00     0.049 A 
ATOM     11  C13 Q8U A 901      24.452 -11.404  24.986  1.00  0.00     0.037 A 
ATOM     12  C10 Q8U A 901      25.397 -12.325  25.530  1.00  0.00    -0.050 A 
ATOM     13  C11 Q8U A 901      25.289 -13.782  24.991  1.00  0.00     0.041 C 
ATOM     14  C09 Q8U A 901      26.326 -11.863  26.420  1.00  0.00    -0.052 A 
ATOM     15  C12 Q8U A 901      26.485 -14.194  24.237  1.00  0.00     0.037 C 
ATOM     16  C06 Q8U A 901      27.737 -14.659  25.075  1.00  0.00     0.188 C 
ATOM     17  C07 Q8U A 901      28.329 -13.301  25.857  1.00  0.00     0.037 C 
ATOM     18  C08 Q8U A 901      27.421 -12.758  26.992  1.00  0.00     0.041 C 
ATOM     19  C16 Q8U A 901      26.354 -10.489  26.831  1.00  0.00     0.010 A 
ATOM     20  C15 Q8U A 901      25.409  -9.561  26.346  1.00  0.00     0.030 A 
BRANCH  16  21
ATOM     21  N04 Q8U A 901      28.580 -15.184  24.291  1.00  0.00    -0.067 N 
ATOM     22  C03 Q8U A 901      29.540 -14.457  24.025  1.00  0.00     0.235 C 
ATOM     23  C02 Q8U A 901      30.653 -15.464  23.536  1.00  0.00     0.029 C 
ATOM     24  C01 Q8U A 901      30.406 -16.632  24.366  1.00  0.00     0.029 C 
ATOM     25  C05 Q8U A 901      29.246 -16.478  24.912  1.00  0.00     0.235 C 
ATOM     26  H   Q8U A 901      28.023 -15.379  23.459  1.00  0.00     0.280 HD
ENDBRANCH  16  21
ENDBRANCH   8  10
ENDBRANCH   2   8
BRANCH   1  27
ATOM     27  N23 Q8U A 901      18.670  -9.337  24.472  1.00  0.00    -0.232 N 
ATOM     28  H   Q8U A 901      18.385  -8.538  24.970  1.00  0.00     0.174 HD
ATOM     29  H   Q8U A 901      17.998  -9.975  24.139  1.00  0.00     0.174 HD
ENDBRANCH   1  27
BRANCH   5  30
ATOM     30  C24 Q8U A 901      19.854 -11.242  22.354  1.00  0.00     0.161 A 
ATOM     31  N25 Q8U A 901      20.062 -12.600  22.353  1.00  0.00    -0.283 N 
ATOM     32  N26 Q8U A 901      19.316 -13.353  21.536  1.00  0.00    -0.298 N 
ATOM     33  H25 Q8U A 901      20.765 -13.023  22.959  1.00  0.00     0.188 HD
ATOM     34  C27 Q8U A 901      18.413 -12.756  20.656  1.00  0.00     0.065 A 
ATOM     35  H26 Q8U A 901      19.409 -14.368  21.558  1.00  0.00     0.187 HD
ATOM     36  C38 Q8U A 901      17.688 -13.705  19.838  1.00  0.00    -0.001 A 
ATOM     37  C28 Q8U A 901      18.198 -11.409  20.625  1.00  0.00    -0.025 A 
ATOM     38  C33 Q8U A 901      16.298 -13.598  19.695  1.00  0.00    -0.046 A 
ATOM     39  C37 Q8U A 901      18.402 -14.759  19.224  1.00  0.00     0.014 A 
ATOM     40  C32 Q8U A 901      15.529 -12.485  20.470  1.00  0.00     0.040 C 
ATOM     41  C34 Q8U A 901      15.584 -14.543  18.954  1.00  0.00     0.008 A 
ATOM     42  C31 Q8U A 901      15.824 -11.062  19.984  1.00  0.00     0.009 C 
ATOM     43  C30 Q8U A 901      17.231 -10.835  19.600  1.00  0.00     0.041 C 
ATOM     44  C35 Q8U A 901      16.270 -15.537  18.313  1.00  0.00     0.001 A 
ATOM     45  C36 Q8U A 901      17.675 -15.673  18.463  1.00  0.00     0.001 A 
ATOM     46  C29 Q8U A 901      18.969 -10.541  21.519  1.00  0.00     0.062 A 
ENDBRANCH   5  30
TORSDOF 5
ENDMDL
MODEL 9
REMARK VINA RESULT:    -7.067      2.759      4.859
REMARK INTER + INTRA:          -9.272
REMARK INTER:                  -8.589
REMARK INTRA:                  -0.683
REMARK UNBOUND:                -0.347
REMARK  5 active torsions:
REMARK  status: ('A' for Active; 'I' for Inactive)
REMARK    1  A    between atoms: C14_5  and  N17_32 
REMARK    2  A    between atoms: C21_8  and  N23_38 
REMARK    3  A    between atoms: C24_9  and  N20_35 
REMARK    4  A    between atoms: C18_11  and  N17_32 
REMARK    5  A    between atoms: C06_16  and  N04_31 
ROOT
ATOM      1  C21 Q8U A 901      20.130  -9.407  24.264  1.00  0.00     0.714 A 
ATOM      2  C18 Q8U A 901      22.231  -9.187  24.282  1.00  0.00     0.712 A 
ATOM      3  N19 Q8U A 901      21.993 -10.094  23.322  1.00  0.00    -0.108 N 
ATOM      4  H19 Q8U A 901      22.678 -10.576  22.740  1.00  0.00     0.207 HD
ATOM      5  N20 Q8U A 901      20.692 -10.229  23.295  1.00  0.00    -0.054 N 
ATOM      6  N22 Q8U A 901      21.084  -8.767  24.888  1.00  0.00    -0.019 N 
ATOM      7  H22 Q8U A 901      20.991  -8.103  25.656  1.00  0.00     0.203 HD
ENDROOT
BRANCH   2   8
ATOM      8  N17 Q8U A 901      23.531  -8.696  24.674  1.00  0.00    -0.190 N 
ATOM      9  H   Q8U A 901      23.735  -7.772  24.404  1.00  0.00     0.184 HD
BRANCH   8  10
ATOM     10  C14 Q8U A 901      24.540  -9.352  25.385  1.00  0.00     0.049 A 
ATOM     11  C13 Q8U A 901      25.278 -10.341  24.646  1.00  0.00     0.037 A 
ATOM     12  C10 Q8U A 901      26.313 -11.082  25.290  1.00  0.00    -0.050 A 
ATOM     13  C11 Q8U A 901      27.037 -12.128  24.393  1.00  0.00     0.041 C 
ATOM     14  C09 Q8U A 901      26.612 -10.795  26.593  1.00  0.00    -0.052 A 
ATOM     15  C12 Q8U A 901      28.459 -11.805  24.185  1.00  0.00     0.037 C 
ATOM     16  C06 Q8U A 901      29.458 -12.193  25.341  1.00  0.00     0.188 C 
ATOM     17  C07 Q8U A 901      29.110 -11.193  26.640  1.00  0.00     0.037 C 
ATOM     18  C08 Q8U A 901      27.754 -11.482  27.337  1.00  0.00     0.041 C 
ATOM     19  C16 Q8U A 901      25.898  -9.788  27.324  1.00  0.00     0.010 A 
ATOM     20  C15 Q8U A 901      24.842  -9.066  26.731  1.00  0.00     0.030 A 
BRANCH  16  21
ATOM     21  N04 Q8U A 901      30.643 -12.058  24.918  1.00  0.00    -0.067 N 
ATOM     22  C03 Q8U A 901      30.944 -12.832  24.006  1.00  0.00     0.235 C 
ATOM     23  C02 Q8U A 901      32.177 -12.136  23.309  1.00  0.00     0.029 C 
ATOM     24  C01 Q8U A 901      31.854 -10.724  23.437  1.00  0.00     0.029 C 
ATOM     25  C05 Q8U A 901      30.894 -10.625  24.295  1.00  0.00     0.235 C 
ATOM     26  H   Q8U A 901      31.202 -12.236  25.753  1.00  0.00     0.280 HD
ENDBRANCH  16  21
ENDBRANCH   8  10
ENDBRANCH   2   8
BRANCH   1  27
ATOM     27  N23 Q8U A 901      18.745  -9.317  24.585  1.00  0.00    -0.232 N 
ATOM     28  H   Q8U A 901      18.465  -9.189  25.520  1.00  0.00     0.174 HD
ATOM     29  H   Q8U A 901      18.069  -9.383  23.873  1.00  0.00     0.174 HD
ENDBRANCH   1  27
BRANCH   5  30
ATOM     30  C24 Q8U A 901      19.993 -11.098  22.397  1.00  0.00     0.161 A 
ATOM     31  N25 Q8U A 901      20.326 -12.431  22.396  1.00  0.00    -0.283 N 
ATOM     32  N26 Q8U A 901      19.614 -13.259  21.623  1.00  0.00    -0.298 N 
ATOM     33  H25 Q8U A 901      21.094 -12.780  22.969  1.00  0.00     0.188 HD
ATOM     34  C27 Q8U A 901      18.618 -12.759  20.784  1.00  0.00     0.065 A 
ATOM     35  H26 Q8U A 901      19.801 -14.261  21.647  1.00  0.00     0.187 HD
ATOM     36  C38 Q8U A 901      17.945 -13.780  20.010  1.00  0.00    -0.001 A 
ATOM     37  C28 Q8U A 901      18.277 -11.437  20.754  1.00  0.00    -0.025 A 
ATOM     38  C33 Q8U A 901      16.546 -13.804  19.936  1.00  0.00    -0.046 A 
ATOM     39  C37 Q8U A 901      18.722 -14.771  19.368  1.00  0.00     0.014 A 
ATOM     40  C32 Q8U A 901      15.715 -12.758  20.740  1.00  0.00     0.040 C 
ATOM     41  C34 Q8U A 901      15.887 -14.819  19.238  1.00  0.00     0.008 A 
ATOM     42  C31 Q8U A 901      15.853 -11.319  20.230  1.00  0.00     0.009 C 
ATOM     43  C30 Q8U A 901      17.212 -10.967  19.774  1.00  0.00     0.041 C 
ATOM     44  C35 Q8U A 901      16.631 -15.753  18.571  1.00  0.00     0.001 A 
ATOM     45  C36 Q8U A 901      18.047 -15.757  18.652  1.00  0.00     0.001 A 
ATOM     46  C29 Q8U A 901      19.007 -10.491  21.602  1.00  0.00     0.062 A 
ENDBRANCH   5  30
TORSDOF 5
ENDMDL
MODEL 10
REMARK VINA RESULT:    -7.051      2.922      5.029
REMARK INTER + INTRA:          -9.253
REMARK INTER:                  -8.756
REMARK INTRA:                  -0.497
REMARK UNBOUND:                -0.347
REMARK  5 active torsions:
REMARK  status: ('A' for Active; 'I' for Inactive)
REMARK    1  A    between atoms: C14_5  and  N17_32 
REMARK    2  A    between atoms: C21_8  and  N23_38 
REMARK    3  A    between atoms: C24_9  and  N20_35 
REMARK    4  A    between atoms: C18_11  and  N17_32 
REMARK    5  A    between atoms: C06_16  and  N04_31 
ROOT
ATOM      1  C21 Q8U A 901      21.050 -10.082  24.252  1.00  0.00     0.714 A 
ATOM      2  C18 Q8U A 901      23.120 -10.479  24.391  1.00  0.00     0.712 A 
ATOM      3  N19 Q8U A 901      22.674 -11.325  23.449  1.00  0.00    -0.108 N 
ATOM      4  H19 Q8U A 901      23.216 -12.013  22.926  1.00  0.00     0.207 HD
ATOM      5  N20 Q8U A 901      21.394 -11.077  23.347  1.00  0.00    -0.054 N 
ATOM      6  N22 Q8U A 901      22.117  -9.716  24.912  1.00  0.00    -0.019 N 
ATOM      7  H22 Q8U A 901      22.185  -9.016  25.651  1.00  0.00     0.203 HD
ENDROOT
BRANCH   2   8
ATOM      8  N17 Q8U A 901      24.486 -10.368  24.846  1.00  0.00    -0.190 N 
ATOM      9  H   Q8U A 901      24.972  -9.570  24.537  1.00  0.00     0.184 HD
BRANCH   8  10
ATOM     10  C14 Q8U A 901      25.214 -11.236  25.664  1.00  0.00     0.049 A 
ATOM     11  C13 Q8U A 901      25.152 -12.627  25.303  1.00  0.00     0.037 A 
ATOM     12  C10 Q8U A 901      25.841 -13.596  26.091  1.00  0.00    -0.050 A 
ATOM     13  C11 Q8U A 901      25.697 -15.069  25.607  1.00  0.00     0.041 C 
ATOM     14  C09 Q8U A 901      26.591 -13.167  27.151  1.00  0.00    -0.052 A 
ATOM     15  C12 Q8U A 901      26.979 -15.647  25.169  1.00  0.00     0.037 C 
ATOM     16  C06 Q8U A 901      27.950 -16.174  26.293  1.00  0.00     0.188 C 
ATOM     17  C07 Q8U A 901      28.498 -14.830  27.131  1.00  0.00     0.037 C 
ATOM     18  C08 Q8U A 901      27.424 -14.124  27.999  1.00  0.00     0.041 C 
ATOM     19  C16 Q8U A 901      26.679 -11.777  27.495  1.00  0.00     0.010 A 
ATOM     20  C15 Q8U A 901      25.977 -10.798  26.764  1.00  0.00     0.030 A 
BRANCH  16  21
ATOM     21  N04 Q8U A 901      28.884 -16.831  25.749  1.00  0.00    -0.067 N 
ATOM     22  C03 Q8U A 901      28.498 -17.689  24.951  1.00  0.00     0.235 C 
ATOM     23  C02 Q8U A 901      29.761 -17.957  24.043  1.00  0.00     0.029 C 
ATOM     24  C01 Q8U A 901      30.380 -16.644  23.970  1.00  0.00     0.029 C 
ATOM     25  C05 Q8U A 901      29.836 -15.910  24.883  1.00  0.00     0.235 C 
ATOM     26  H   Q8U A 901      29.355 -17.256  26.549  1.00  0.00     0.280 HD
ENDBRANCH  16  21
ENDBRANCH   8  10
ENDBRANCH   2   8
BRANCH   1  27
ATOM     27  N23 Q8U A 901      19.738  -9.578  24.486  1.00  0.00    -0.232 N 
ATOM     28  H   Q8U A 901      19.553  -9.042  25.289  1.00  0.00     0.174 HD
ATOM     29  H   Q8U A 901      19.016  -9.767  23.843  1.00  0.00     0.174 HD
ENDBRANCH   1  27
BRANCH   5  30
ATOM     30  C24 Q8U A 901      20.516 -11.750  22.437  1.00  0.00     0.161 A 
ATOM     31  N25 Q8U A 901      20.636 -13.112  22.309  1.00  0.00    -0.283 N 
ATOM     32  N26 Q8U A 901      19.760 -13.753  21.527  1.00  0.00    -0.298 N 
ATOM     33  H25 Q8U A 901      21.373 -13.622  22.796  1.00  0.00     0.188 HD
ATOM     34  C27 Q8U A 901      18.805 -13.037  20.803  1.00  0.00     0.065 A 
ATOM     35  H26 Q8U A 901      19.789 -14.770  21.460  1.00  0.00     0.187 HD
ATOM     36  C38 Q8U A 901      17.937 -13.874  20.003  1.00  0.00    -0.001 A 
ATOM     37  C28 Q8U A 901      18.673 -11.682  20.900  1.00  0.00    -0.025 A 
ATOM     38  C33 Q8U A 901      16.549 -13.680  20.028  1.00  0.00    -0.046 A 
ATOM     39  C37 Q8U A 901      18.511 -14.911  19.233  1.00  0.00     0.014 A 
ATOM     40  C32 Q8U A 901      15.941 -12.596  20.969  1.00  0.00     0.040 C 
ATOM     41  C34 Q8U A 901      15.701 -14.520  19.303  1.00  0.00     0.008 A 
ATOM     42  C31 Q8U A 901      16.271 -11.155  20.562  1.00  0.00     0.009 C 
ATOM     43  C30 Q8U A 901      17.639 -10.973  20.039  1.00  0.00     0.041 C 
ATOM     44  C35 Q8U A 901      16.248 -15.493  18.514  1.00  0.00     0.001 A 
ATOM     45  C36 Q8U A 901      17.649 -15.717  18.492  1.00  0.00     0.001 A 
ATOM     46  C29 Q8U A 901      19.591 -10.935  21.765  1.00  0.00     0.062 A 
ENDBRANCH   5  30
TORSDOF 5
ENDMDL
