MODEL 1
REMARK VINA RESULT:    -7.552      0.000      0.000
REMARK INTER + INTRA:         -13.337
REMARK INTER:                 -12.188
REMARK INTRA:                  -1.149
REMARK UNBOUND:                -1.149
REMARK  11 active torsions:
REMARK  status: ('A' for Active; 'I' for Inactive)
REMARK    1  A    between atoms: O1_1  and  C2_2 
REMARK    2  A    between atoms: C2_2  and  C3_3 
REMARK    3  A    between atoms: C3_3  and  O4_4 
REMARK    4  A    between atoms: O4_4  and  C5_5 
REMARK    5  A    between atoms: C5_5  and  C6_6 
REMARK    6  A    between atoms: C6_6  and  N7_7 
REMARK    7  A    between atoms: C14_16  and  N15_17 
REMARK    8  A    between atoms: N15_17  and  C16_18 
REMARK    9  A    between atoms: C19_22  and  O20_23 
REMARK   10  A    between atoms: O20_23  and  C21_24 
REMARK   11  A    between atoms: C25_28  and  C27_30 
ROOT
ATOM      1  N15 03Q A   1      16.513  14.279  27.401  1.00  0.00    -0.339 N 
ATOM      2  H   03Q A   1      15.612  13.955  27.629  1.00  0.00     0.167 HD
ENDROOT
BRANCH   1   3
ATOM      3  C14 03Q A   1      17.618  13.643  27.958  1.00  0.00     0.136 A 
ATOM      4  N13 03Q A   1      18.846  14.190  27.873  1.00  0.00    -0.337 N 
ATOM      5  C12 03Q A   1      19.916  13.594  28.407  1.00  0.00     0.182 A 
ATOM      6  H13 03Q A   1      18.961  15.080  27.390  1.00  0.00     0.168 HD
ATOM      7  N11 03Q A   1      19.825  12.448  29.055  1.00  0.00    -0.350 N 
ATOM      8  C10 03Q A   1      18.635  11.831  29.187  1.00  0.00     0.065 A 
ATOM      9  H11 03Q A   1      20.662  12.027  29.459  1.00  0.00     0.166 HD
ATOM     10  C9  03Q A   1      18.205  10.595  29.815  1.00  0.00     0.049 A 
ATOM     11  C34 03Q A   1      17.466  12.412  28.634  1.00  0.00     0.106 A 
ATOM     12  C8  03Q A   1      16.873  10.496  29.622  1.00  0.00     0.094 A 
ATOM     13  N7  03Q A   1      16.407  11.574  28.928  1.00  0.00    -0.350 N 
BRANCH  13  14
ATOM     14  C6  03Q A   1      14.990  11.730  28.522  1.00  0.00     0.155 C 
BRANCH  14  15
ATOM     15  C5  03Q A   1      14.006  11.671  29.687  1.00  0.00     0.187 C 
BRANCH  15  16
ATOM     16  O4  03Q A   1      13.304  12.910  29.683  1.00  0.00    -0.387 OA
BRANCH  16  17
ATOM     17  C3  03Q A   1      13.085  13.486  28.396  1.00  0.00     0.193 C 
BRANCH  17  18
ATOM     18  C2  03Q A   1      12.762  14.981  28.512  1.00  0.00     0.190 C 
BRANCH  18  19
ATOM     19  O1  03Q A   1      11.611  15.252  29.320  1.00  0.00    -0.399 OA
ATOM     20  H   03Q A   1      10.836  14.809  28.938  1.00  0.00     0.209 HD
ENDBRANCH  18  19
ENDBRANCH  17  18
ENDBRANCH  16  17
ENDBRANCH  15  16
ENDBRANCH  14  15
ENDBRANCH  13  14
ENDBRANCH   1   3
BRANCH   1  21
ATOM     21  C16 03Q A   1      16.642  15.365  26.527  1.00  0.00     0.051 A 
ATOM     22  C33 03Q A   1      17.511  15.351  25.442  1.00  0.00     0.059 A 
ATOM     23  C31 03Q A   1      17.562  16.486  24.640  1.00  0.00     0.087 A 
ATOM     24  C19 03Q A   1      16.758  17.596  24.935  1.00  0.00     0.170 A 
ATOM     25 CL32 03Q A   1      18.620  16.509  23.276  1.00  0.00    -0.080 Cl
ATOM     26  N18 03Q A   1      15.945  17.563  25.963  1.00  0.00    -0.343 N 
ATOM     27  C17 03Q A   1      15.874  16.507  26.753  1.00  0.00     0.119 A 
ATOM     28  H18 03Q A   1      15.352  18.371  26.157  1.00  0.00     0.167 HD
BRANCH  24  29
ATOM     29  O20 03Q A   1      16.781  18.727  24.174  1.00  0.00    -0.292 OA
BRANCH  29  30
ATOM     30  C21 03Q A   1      17.566  19.799  24.503  1.00  0.00     0.078 A 
ATOM     31  C26 03Q A   1      17.286  21.032  23.940  1.00  0.00     0.053 A 
ATOM     32  C25 03Q A   1      18.071  22.137  24.241  1.00  0.00     0.050 A 
ATOM     33  C24 03Q A   1      19.157  22.041  25.098  1.00  0.00     0.016 A 
ATOM     34  C23 03Q A   1      19.448  20.806  25.650  1.00  0.00     0.004 A 
ATOM     35  C22 03Q A   1      18.663  19.695  25.356  1.00  0.00     0.037 A 
BRANCH  32  36
ATOM     36  C27 03Q A   1      17.758  23.473  23.642  1.00  0.00     0.417 C 
ATOM     37  F28 03Q A   1      17.566  24.466  24.580  1.00  0.00    -0.166 F 
ATOM     38  F29 03Q A   1      16.621  23.339  22.850  1.00  0.00    -0.166 F 
ATOM     39  F30 03Q A   1      18.827  23.896  22.893  1.00  0.00    -0.166 F 
ENDBRANCH  32  36
ENDBRANCH  29  30
ENDBRANCH  24  29
ENDBRANCH   1  21
TORSDOF 11
ENDMDL
MODEL 2
REMARK VINA RESULT:    -7.089      1.899      3.846
REMARK INTER + INTRA:         -12.589
REMARK INTER:                 -11.409
REMARK INTRA:                  -1.180
REMARK UNBOUND:                -1.149
REMARK  11 active torsions:
REMARK  status: ('A' for Active; 'I' for Inactive)
REMARK    1  A    between atoms: O1_1  and  C2_2 
REMARK    2  A    between atoms: C2_2  and  C3_3 
REMARK    3  A    between atoms: C3_3  and  O4_4 
REMARK    4  A    between atoms: O4_4  and  C5_5 
REMARK    5  A    between atoms: C5_5  and  C6_6 
REMARK    6  A    between atoms: C6_6  and  N7_7 
REMARK    7  A    between atoms: C14_16  and  N15_17 
REMARK    8  A    between atoms: N15_17  and  C16_18 
REMARK    9  A    between atoms: C19_22  and  O20_23 
REMARK   10  A    between atoms: O20_23  and  C21_24 
REMARK   11  A    between atoms: C25_28  and  C27_30 
ROOT
ATOM      1  N15 03Q A   1      15.563  14.571  27.786  1.00  0.00    -0.339 N 
ATOM      2  H   03Q A   1      16.229  13.985  28.212  1.00  0.00     0.167 HD
ENDROOT
BRANCH   1   3
ATOM      3  C14 03Q A   1      14.233  14.479  28.184  1.00  0.00     0.136 A 
ATOM      4  N13 03Q A   1      13.499  15.586  28.405  1.00  0.00    -0.337 N 
ATOM      5  C12 03Q A   1      12.219  15.514  28.783  1.00  0.00     0.182 A 
ATOM      6  H13 03Q A   1      13.930  16.502  28.280  1.00  0.00     0.168 HD
ATOM      7  N11 03Q A   1      11.605  14.358  28.948  1.00  0.00    -0.350 N 
ATOM      8  C10 03Q A   1      12.265  13.200  28.749  1.00  0.00     0.065 A 
ATOM      9  H11 03Q A   1      10.624  14.341  29.227  1.00  0.00     0.166 HD
ATOM     10  C9  03Q A   1      11.895  11.800  28.848  1.00  0.00     0.049 A 
ATOM     11  C34 03Q A   1      13.626  13.214  28.355  1.00  0.00     0.106 A 
ATOM     12  C8  03Q A   1      12.990  11.078  28.527  1.00  0.00     0.094 A 
ATOM     13  N7  03Q A   1      14.033  11.901  28.219  1.00  0.00    -0.350 N 
BRANCH  13  14
ATOM     14  C6  03Q A   1      15.386  11.403  27.870  1.00  0.00     0.155 C 
BRANCH  14  15
ATOM     15  C5  03Q A   1      16.304  11.220  29.074  1.00  0.00     0.187 C 
BRANCH  15  16
ATOM     16  O4  03Q A   1      17.110  12.392  29.148  1.00  0.00    -0.387 OA
BRANCH  16  17
ATOM     17  C3  03Q A   1      18.237  12.416  28.273  1.00  0.00     0.193 C 
BRANCH  17  18
ATOM     18  C2  03Q A   1      19.546  12.277  29.061  1.00  0.00     0.190 C 
BRANCH  18  19
ATOM     19  O1  03Q A   1      19.592  11.106  29.884  1.00  0.00    -0.399 OA
ATOM     20  H   03Q A   1      20.489  10.991  30.234  1.00  0.00     0.209 HD
ENDBRANCH  18  19
ENDBRANCH  17  18
ENDBRANCH  16  17
ENDBRANCH  15  16
ENDBRANCH  14  15
ENDBRANCH  13  14
ENDBRANCH   1   3
BRANCH   1  21
ATOM     21  C16 03Q A   1      15.984  15.472  26.800  1.00  0.00     0.051 A 
ATOM     22  C33 03Q A   1      17.009  15.176  25.909  1.00  0.00     0.059 A 
ATOM     23  C31 03Q A   1      17.349  16.144  24.971  1.00  0.00     0.087 A 
ATOM     24  C19 03Q A   1      16.670  17.371  24.944  1.00  0.00     0.170 A 
ATOM     25 CL32 03Q A   1      18.611  15.816  23.838  1.00  0.00    -0.080 Cl
ATOM     26  N18 03Q A   1      15.703  17.604  25.796  1.00  0.00    -0.343 N 
ATOM     27  C17 03Q A   1      15.357  16.713  26.708  1.00  0.00     0.119 A 
ATOM     28  H18 03Q A   1      15.205  18.494  25.756  1.00  0.00     0.167 HD
BRANCH  24  29
ATOM     29  O20 03Q A   1      16.976  18.346  24.040  1.00  0.00    -0.292 OA
BRANCH  29  30
ATOM     30  C21 03Q A   1      17.660  19.474  24.405  1.00  0.00     0.078 A 
ATOM     31  C26 03Q A   1      17.310  20.684  23.831  1.00  0.00     0.053 A 
ATOM     32  C25 03Q A   1      17.992  21.845  24.167  1.00  0.00     0.050 A 
ATOM     33  C24 03Q A   1      19.044  21.831  25.071  1.00  0.00     0.016 A 
ATOM     34  C23 03Q A   1      19.405  20.620  25.636  1.00  0.00     0.004 A 
ATOM     35  C22 03Q A   1      18.723  19.452  25.306  1.00  0.00     0.037 A 
BRANCH  32  36
ATOM     36  C27 03Q A   1      17.603  23.155  23.555  1.00  0.00     0.417 C 
ATOM     37  F28 03Q A   1      16.332  23.155  23.017  1.00  0.00    -0.166 F 
ATOM     38  F29 03Q A   1      18.537  23.472  22.574  1.00  0.00    -0.166 F 
ATOM     39  F30 03Q A   1      17.572  24.120  24.531  1.00  0.00    -0.166 F 
ENDBRANCH  32  36
ENDBRANCH  29  30
ENDBRANCH  24  29
ENDBRANCH   1  21
TORSDOF 11
ENDMDL
MODEL 3
REMARK VINA RESULT:    -6.906      0.962      1.716
REMARK INTER + INTRA:         -12.295
REMARK INTER:                 -11.267
REMARK INTRA:                  -1.027
REMARK UNBOUND:                -1.149
REMARK  11 active torsions:
REMARK  status: ('A' for Active; 'I' for Inactive)
REMARK    1  A    between atoms: O1_1  and  C2_2 
REMARK    2  A    between atoms: C2_2  and  C3_3 
REMARK    3  A    between atoms: C3_3  and  O4_4 
REMARK    4  A    between atoms: O4_4  and  C5_5 
REMARK    5  A    between atoms: C5_5  and  C6_6 
REMARK    6  A    between atoms: C6_6  and  N7_7 
REMARK    7  A    between atoms: C14_16  and  N15_17 
REMARK    8  A    between atoms: N15_17  and  C16_18 
REMARK    9  A    between atoms: C19_22  and  O20_23 
REMARK   10  A    between atoms: O20_23  and  C21_24 
REMARK   11  A    between atoms: C25_28  and  C27_30 
ROOT
ATOM      1  N15 03Q A   1      16.365  14.254  27.368  1.00  0.00    -0.339 N 
ATOM      2  H   03Q A   1      15.442  13.996  27.593  1.00  0.00     0.167 HD
ENDROOT
BRANCH   1   3
ATOM      3  C14 03Q A   1      17.420  13.560  27.952  1.00  0.00     0.136 A 
ATOM      4  N13 03Q A   1      18.676  14.044  27.905  1.00  0.00    -0.337 N 
ATOM      5  C12 03Q A   1      19.699  13.392  28.466  1.00  0.00     0.182 A 
ATOM      6  H13 03Q A   1      18.850  14.929  27.430  1.00  0.00     0.168 HD
ATOM      7  N11 03Q A   1      19.532  12.249  29.104  1.00  0.00    -0.350 N 
ATOM      8  C10 03Q A   1      18.308  11.693  29.198  1.00  0.00     0.065 A 
ATOM      9  H11 03Q A   1      20.334  11.784  29.528  1.00  0.00     0.166 HD
ATOM     10  C9  03Q A   1      17.798  10.477  29.807  1.00  0.00     0.049 A 
ATOM     11  C34 03Q A   1      17.187  12.335  28.616  1.00  0.00     0.106 A 
ATOM     12  C8  03Q A   1      16.469  10.447  29.575  1.00  0.00     0.094 A 
ATOM     13  N7  03Q A   1      16.079  11.551  28.874  1.00  0.00    -0.350 N 
BRANCH  13  14
ATOM     14  C6  03Q A   1      14.683  11.780  28.429  1.00  0.00     0.155 C 
BRANCH  14  15
ATOM     15  C5  03Q A   1      13.816  12.491  29.464  1.00  0.00     0.187 C 
BRANCH  15  16
ATOM     16  O4  03Q A   1      12.545  11.849  29.434  1.00  0.00    -0.387 OA
BRANCH  16  17
ATOM     17  C3  03Q A   1      12.554  10.494  28.985  1.00  0.00     0.193 C 
BRANCH  17  18
ATOM     18  C2  03Q A   1      12.001   9.556  30.066  1.00  0.00     0.190 C 
BRANCH  18  19
ATOM     19  O1  03Q A   1      12.878   9.401  31.187  1.00  0.00    -0.399 OA
ATOM     20  H   03Q A   1      13.572  10.078  31.150  1.00  0.00     0.209 HD
ENDBRANCH  18  19
ENDBRANCH  17  18
ENDBRANCH  16  17
ENDBRANCH  15  16
ENDBRANCH  14  15
ENDBRANCH  13  14
ENDBRANCH   1   3
BRANCH   1  21
ATOM     21  C16 03Q A   1      16.574  15.307  26.469  1.00  0.00     0.051 A 
ATOM     22  C33 03Q A   1      17.509  15.238  25.442  1.00  0.00     0.059 A 
ATOM     23  C31 03Q A   1      17.637  16.343  24.609  1.00  0.00     0.087 A 
ATOM     24  C19 03Q A   1      16.843  17.480  24.817  1.00  0.00     0.170 A 
ATOM     25 CL32 03Q A   1      18.778  16.297  23.314  1.00  0.00    -0.080 Cl
ATOM     26  N18 03Q A   1      15.967  17.499  25.792  1.00  0.00    -0.343 N 
ATOM     27  C17 03Q A   1      15.822  16.472  26.609  1.00  0.00     0.119 A 
ATOM     28  H18 03Q A   1      15.383  18.326  25.923  1.00  0.00     0.167 HD
BRANCH  24  29
ATOM     29  O20 03Q A   1      16.940  18.585  24.023  1.00  0.00    -0.292 OA
BRANCH  29  30
ATOM     30  C21 03Q A   1      17.658  19.685  24.408  1.00  0.00     0.078 A 
ATOM     31  C26 03Q A   1      17.333  20.918  23.868  1.00  0.00     0.053 A 
ATOM     32  C25 03Q A   1      18.048  22.053  24.226  1.00  0.00     0.050 A 
ATOM     33  C24 03Q A   1      19.109  21.988  25.117  1.00  0.00     0.016 A 
ATOM     34  C23 03Q A   1      19.445  20.755  25.647  1.00  0.00     0.004 A 
ATOM     35  C22 03Q A   1      18.729  19.613  25.296  1.00  0.00     0.037 A 
BRANCH  32  36
ATOM     36  C27 03Q A   1      17.686  23.387  23.652  1.00  0.00     0.417 C 
ATOM     37  F28 03Q A   1      16.497  23.381  22.953  1.00  0.00    -0.166 F 
ATOM     38  F29 03Q A   1      18.725  23.801  22.823  1.00  0.00    -0.166 F 
ATOM     39  F30 03Q A   1      17.491  24.282  24.674  1.00  0.00    -0.166 F 
ENDBRANCH  32  36
ENDBRANCH  29  30
ENDBRANCH  24  29
ENDBRANCH   1  21
TORSDOF 11
ENDMDL
MODEL 4
REMARK VINA RESULT:    -4.846      1.236      1.711
REMARK INTER + INTRA:          -8.970
REMARK INTER:                  -7.446
REMARK INTRA:                  -1.524
REMARK UNBOUND:                -1.149
REMARK  11 active torsions:
REMARK  status: ('A' for Active; 'I' for Inactive)
REMARK    1  A    between atoms: O1_1  and  C2_2 
REMARK    2  A    between atoms: C2_2  and  C3_3 
REMARK    3  A    between atoms: C3_3  and  O4_4 
REMARK    4  A    between atoms: O4_4  and  C5_5 
REMARK    5  A    between atoms: C5_5  and  C6_6 
REMARK    6  A    between atoms: C6_6  and  N7_7 
REMARK    7  A    between atoms: C14_16  and  N15_17 
REMARK    8  A    between atoms: N15_17  and  C16_18 
REMARK    9  A    between atoms: C19_22  and  O20_23 
REMARK   10  A    between atoms: O20_23  and  C21_24 
REMARK   11  A    between atoms: C25_28  and  C27_30 
ROOT
ATOM      1  N15 03Q A   1      16.093  13.953  27.045  1.00  0.00    -0.339 N 
ATOM      2  H   03Q A   1      15.139  13.801  26.857  1.00  0.00     0.167 HD
ENDROOT
BRANCH   1   3
ATOM      3  C14 03Q A   1      16.773  13.047  27.854  1.00  0.00     0.136 A 
ATOM      4  N13 03Q A   1      18.086  13.199  28.109  1.00  0.00    -0.337 N 
ATOM      5  C12 03Q A   1      18.752  12.340  28.888  1.00  0.00     0.182 A 
ATOM      6  H13 03Q A   1      18.585  13.988  27.698  1.00  0.00     0.168 HD
ATOM      7  N11 03Q A   1      18.157  11.309  29.455  1.00  0.00    -0.350 N 
ATOM      8  C10 03Q A   1      16.844  11.082  29.253  1.00  0.00     0.065 A 
ATOM      9  H11 03Q A   1      18.694  10.680  30.052  1.00  0.00     0.166 HD
ATOM     10  C9  03Q A   1      15.915  10.064  29.711  1.00  0.00     0.049 A 
ATOM     11  C34 03Q A   1      16.088  11.954  28.430  1.00  0.00     0.106 A 
ATOM     12  C8  03Q A   1      14.712  10.355  29.173  1.00  0.00     0.094 A 
ATOM     13  N7  03Q A   1      14.789  11.485  28.412  1.00  0.00    -0.350 N 
BRANCH  13  14
ATOM     14  C6  03Q A   1      13.639  12.034  27.654  1.00  0.00     0.155 C 
BRANCH  14  15
ATOM     15  C5  03Q A   1      12.316  11.974  28.412  1.00  0.00     0.187 C 
BRANCH  15  16
ATOM     16  O4  03Q A   1      12.207  13.200  29.130  1.00  0.00    -0.387 OA
BRANCH  16  17
ATOM     17  C3  03Q A   1      12.410  14.382  28.357  1.00  0.00     0.193 C 
BRANCH  17  18
ATOM     18  C2  03Q A   1      13.301  15.381  29.107  1.00  0.00     0.190 C 
BRANCH  18  19
ATOM     19  O1  03Q A   1      13.410  15.104  30.507  1.00  0.00    -0.399 OA
ATOM     20  H   03Q A   1      12.731  15.603  30.989  1.00  0.00     0.209 HD
ENDBRANCH  18  19
ENDBRANCH  17  18
ENDBRANCH  16  17
ENDBRANCH  15  16
ENDBRANCH  14  15
ENDBRANCH  13  14
ENDBRANCH   1   3
BRANCH   1  21
ATOM     21  C16 03Q A   1      16.723  15.073  26.490  1.00  0.00     0.051 A 
ATOM     22  C33 03Q A   1      17.370  15.032  25.260  1.00  0.00     0.059 A 
ATOM     23  C31 03Q A   1      17.966  16.202  24.804  1.00  0.00     0.087 A 
ATOM     24  C19 03Q A   1      17.907  17.372  25.575  1.00  0.00     0.170 A 
ATOM     25 CL32 03Q A   1      18.772  16.200  23.277  1.00  0.00    -0.080 Cl
ATOM     26  N18 03Q A   1      17.277  17.369  26.724  1.00  0.00    -0.343 N 
ATOM     27  C17 03Q A   1      16.707  16.275  27.195  1.00  0.00     0.119 A 
ATOM     28  H18 03Q A   1      17.227  18.231  27.268  1.00  0.00     0.167 HD
BRANCH  24  29
ATOM     29  O20 03Q A   1      18.480  18.539  25.162  1.00  0.00    -0.292 OA
BRANCH  29  30
ATOM     30  C21 03Q A   1      17.747  19.525  24.558  1.00  0.00     0.078 A 
ATOM     31  C26 03Q A   1      18.297  20.789  24.439  1.00  0.00     0.053 A 
ATOM     32  C25 03Q A   1      17.576  21.817  23.845  1.00  0.00     0.050 A 
ATOM     33  C24 03Q A   1      16.291  21.615  23.365  1.00  0.00     0.016 A 
ATOM     34  C23 03Q A   1      15.733  20.355  23.496  1.00  0.00     0.004 A 
ATOM     35  C22 03Q A   1      16.452  19.320  24.088  1.00  0.00     0.037 A 
BRANCH  32  36
ATOM     36  C27 03Q A   1      18.178  23.180  23.705  1.00  0.00     0.417 C 
ATOM     37  F28 03Q A   1      17.504  24.155  24.411  1.00  0.00    -0.166 F 
ATOM     38  F29 03Q A   1      18.210  23.506  22.352  1.00  0.00    -0.166 F 
ATOM     39  F30 03Q A   1      19.445  23.173  24.234  1.00  0.00    -0.166 F 
ENDBRANCH  32  36
ENDBRANCH  29  30
ENDBRANCH  24  29
ENDBRANCH   1  21
TORSDOF 11
ENDMDL
MODEL 5
REMARK VINA RESULT:    -4.735      1.403      1.879
REMARK INTER + INTRA:          -8.791
REMARK INTER:                  -7.777
REMARK INTRA:                  -1.013
REMARK UNBOUND:                -1.149
REMARK  11 active torsions:
REMARK  status: ('A' for Active; 'I' for Inactive)
REMARK    1  A    between atoms: O1_1  and  C2_2 
REMARK    2  A    between atoms: C2_2  and  C3_3 
REMARK    3  A    between atoms: C3_3  and  O4_4 
REMARK    4  A    between atoms: O4_4  and  C5_5 
REMARK    5  A    between atoms: C5_5  and  C6_6 
REMARK    6  A    between atoms: C6_6  and  N7_7 
REMARK    7  A    between atoms: C14_16  and  N15_17 
REMARK    8  A    between atoms: N15_17  and  C16_18 
REMARK    9  A    between atoms: C19_22  and  O20_23 
REMARK   10  A    between atoms: O20_23  and  C21_24 
REMARK   11  A    between atoms: C25_28  and  C27_30 
ROOT
ATOM      1  N15 03Q A   1      16.486  14.465  27.425  1.00  0.00    -0.339 N 
ATOM      2  H   03Q A   1      15.598  14.234  27.781  1.00  0.00     0.167 HD
ENDROOT
BRANCH   1   3
ATOM      3  C14 03Q A   1      17.607  13.826  27.944  1.00  0.00     0.136 A 
ATOM      4  N13 03Q A   1      18.823  14.400  27.879  1.00  0.00    -0.337 N 
ATOM      5  C12 03Q A   1      19.908  13.801  28.378  1.00  0.00     0.182 A 
ATOM      6  H13 03Q A   1      18.917  15.315  27.439  1.00  0.00     0.168 HD
ATOM      7  N11 03Q A   1      19.844  12.623  28.969  1.00  0.00    -0.350 N 
ATOM      8  C10 03Q A   1      18.667  11.976  29.077  1.00  0.00     0.065 A 
ATOM      9  H11 03Q A   1      20.692  12.199  29.347  1.00  0.00     0.166 HD
ATOM     10  C9  03Q A   1      18.266  10.702  29.646  1.00  0.00     0.049 A 
ATOM     11  C34 03Q A   1      17.483  12.560  28.559  1.00  0.00     0.106 A 
ATOM     12  C8  03Q A   1      16.934  10.586  29.456  1.00  0.00     0.094 A 
ATOM     13  N7  03Q A   1      16.443  11.687  28.817  1.00  0.00    -0.350 N 
BRANCH  13  14
ATOM     14  C6  03Q A   1      15.020  11.834  28.428  1.00  0.00     0.155 C 
BRANCH  14  15
ATOM     15  C5  03Q A   1      14.056  11.843  29.610  1.00  0.00     0.187 C 
BRANCH  15  16
ATOM     16  O4  03Q A   1      12.926  12.609  29.202  1.00  0.00    -0.387 OA
BRANCH  16  17
ATOM     17  C3  03Q A   1      13.191  13.620  28.231  1.00  0.00     0.193 C 
BRANCH  17  18
ATOM     18  C2  03Q A   1      12.980  15.019  28.825  1.00  0.00     0.190 C 
BRANCH  18  19
ATOM     19  O1  03Q A   1      11.603  15.336  29.056  1.00  0.00    -0.399 OA
ATOM     20  H   03Q A   1      11.340  15.017  29.934  1.00  0.00     0.209 HD
ENDBRANCH  18  19
ENDBRANCH  17  18
ENDBRANCH  16  17
ENDBRANCH  15  16
ENDBRANCH  14  15
ENDBRANCH  13  14
ENDBRANCH   1   3
BRANCH   1  21
ATOM     21  C16 03Q A   1      16.580  15.427  26.412  1.00  0.00     0.051 A 
ATOM     22  C33 03Q A   1      17.583  15.400  25.449  1.00  0.00     0.059 A 
ATOM     23  C31 03Q A   1      17.585  16.407  24.490  1.00  0.00     0.087 A 
ATOM     24  C19 03Q A   1      16.602  17.407  24.513  1.00  0.00     0.170 A 
ATOM     25 CL32 03Q A   1      18.806  16.408  23.269  1.00  0.00    -0.080 Cl
ATOM     26  N18 03Q A   1      15.669  17.388  25.434  1.00  0.00    -0.343 N 
ATOM     27  C17 03Q A   1      15.639  16.454  26.366  1.00  0.00     0.119 A 
ATOM     28  H18 03Q A   1      14.949  18.112  25.430  1.00  0.00     0.167 HD
BRANCH  24  29
ATOM     29  O20 03Q A   1      16.571  18.411  23.591  1.00  0.00    -0.292 OA
BRANCH  29  30
ATOM     30  C21 03Q A   1      17.044  19.664  23.878  1.00  0.00     0.078 A 
ATOM     31  C26 03Q A   1      18.206  19.786  24.620  1.00  0.00     0.053 A 
ATOM     32  C25 03Q A   1      18.706  21.041  24.942  1.00  0.00     0.050 A 
ATOM     33  C24 03Q A   1      18.058  22.202  24.545  1.00  0.00     0.016 A 
ATOM     34  C23 03Q A   1      16.888  22.081  23.816  1.00  0.00     0.004 A 
ATOM     35  C22 03Q A   1      16.383  20.826  23.486  1.00  0.00     0.037 A 
BRANCH  32  36
ATOM     36  C27 03Q A   1      19.970  21.171  25.732  1.00  0.00     0.417 C 
ATOM     37  F28 03Q A   1      20.465  22.459  25.771  1.00  0.00    -0.166 F 
ATOM     38  F29 03Q A   1      20.918  20.313  25.182  1.00  0.00    -0.166 F 
ATOM     39  F30 03Q A   1      19.721  20.849  27.043  1.00  0.00    -0.166 F 
ENDBRANCH  32  36
ENDBRANCH  29  30
ENDBRANCH  24  29
ENDBRANCH   1  21
TORSDOF 11
ENDMDL
MODEL 6
REMARK VINA RESULT:    -4.581      2.440      4.215
REMARK INTER + INTRA:          -8.541
REMARK INTER:                  -7.378
REMARK INTRA:                  -1.164
REMARK UNBOUND:                -1.149
REMARK  11 active torsions:
REMARK  status: ('A' for Active; 'I' for Inactive)
REMARK    1  A    between atoms: O1_1  and  C2_2 
REMARK    2  A    between atoms: C2_2  and  C3_3 
REMARK    3  A    between atoms: C3_3  and  O4_4 
REMARK    4  A    between atoms: O4_4  and  C5_5 
REMARK    5  A    between atoms: C5_5  and  C6_6 
REMARK    6  A    between atoms: C6_6  and  N7_7 
REMARK    7  A    between atoms: C14_16  and  N15_17 
REMARK    8  A    between atoms: N15_17  and  C16_18 
REMARK    9  A    between atoms: C19_22  and  O20_23 
REMARK   10  A    between atoms: O20_23  and  C21_24 
REMARK   11  A    between atoms: C25_28  and  C27_30 
ROOT
ATOM      1  N15 03Q A   1      15.534  14.669  28.288  1.00  0.00    -0.339 N 
ATOM      2  H   03Q A   1      16.260  14.326  28.858  1.00  0.00     0.167 HD
ENDROOT
BRANCH   1   3
ATOM      3  C14 03Q A   1      14.216  14.392  28.636  1.00  0.00     0.136 A 
ATOM      4  N13 03Q A   1      13.324  15.384  28.813  1.00  0.00    -0.337 N 
ATOM      5  C12 03Q A   1      12.054  15.134  29.143  1.00  0.00     0.182 A 
ATOM      6  H13 03Q A   1      13.626  16.351  28.692  1.00  0.00     0.168 HD
ATOM      7  N11 03Q A   1      11.604  13.904  29.300  1.00  0.00    -0.350 N 
ATOM      8  C10 03Q A   1      12.429  12.850  29.142  1.00  0.00     0.065 A 
ATOM      9  H11 03Q A   1      10.625  13.749  29.542  1.00  0.00     0.166 HD
ATOM     10  C9  03Q A   1      12.258  11.412  29.247  1.00  0.00     0.049 A 
ATOM     11  C34 03Q A   1      13.789  13.055  28.801  1.00  0.00     0.106 A 
ATOM     12  C8  03Q A   1      13.456  10.851  28.978  1.00  0.00     0.094 A 
ATOM     13  N7  03Q A   1      14.384  11.812  28.699  1.00  0.00    -0.350 N 
BRANCH  13  14
ATOM     14  C6  03Q A   1      15.806  11.509  28.408  1.00  0.00     0.155 C 
BRANCH  14  15
ATOM     15  C5  03Q A   1      16.438  10.524  29.387  1.00  0.00     0.187 C 
BRANCH  15  16
ATOM     16  O4  03Q A   1      17.750  11.011  29.657  1.00  0.00    -0.387 OA
BRANCH  16  17
ATOM     17  C3  03Q A   1      18.128  12.182  28.934  1.00  0.00     0.193 C 
BRANCH  17  18
ATOM     18  C2  03Q A   1      19.617  12.494  29.137  1.00  0.00     0.190 C 
BRANCH  18  19
ATOM     19  O1  03Q A   1      20.117  13.487  28.235  1.00  0.00    -0.399 OA
ATOM     20  H   03Q A   1      20.901  13.143  27.778  1.00  0.00     0.209 HD
ENDBRANCH  18  19
ENDBRANCH  17  18
ENDBRANCH  16  17
ENDBRANCH  15  16
ENDBRANCH  14  15
ENDBRANCH  13  14
ENDBRANCH   1   3
BRANCH   1  21
ATOM     21  C16 03Q A   1      15.862  15.421  27.153  1.00  0.00     0.051 A 
ATOM     22  C33 03Q A   1      16.915  15.082  26.312  1.00  0.00     0.059 A 
ATOM     23  C31 03Q A   1      17.155  15.900  25.214  1.00  0.00     0.087 A 
ATOM     24  C19 03Q A   1      16.352  17.026  24.983  1.00  0.00     0.170 A 
ATOM     25 CL32 03Q A   1      18.447  15.511  24.136  1.00  0.00    -0.080 Cl
ATOM     26  N18 03Q A   1      15.362  17.304  25.797  1.00  0.00    -0.343 N 
ATOM     27  C17 03Q A   1      15.109  16.556  26.855  1.00  0.00     0.119 A 
ATOM     28  H18 03Q A   1      14.775  18.116  25.609  1.00  0.00     0.167 HD
BRANCH  24  29
ATOM     29  O20 03Q A   1      16.556  17.854  23.918  1.00  0.00    -0.292 OA
BRANCH  29  30
ATOM     30  C21 03Q A   1      16.956  19.152  24.085  1.00  0.00     0.078 A 
ATOM     31  C26 03Q A   1      18.153  19.406  24.733  1.00  0.00     0.053 A 
ATOM     32  C25 03Q A   1      18.582  20.711  24.933  1.00  0.00     0.050 A 
ATOM     33  C24 03Q A   1      17.829  21.794  24.504  1.00  0.00     0.016 A 
ATOM     34  C23 03Q A   1      16.625  21.543  23.869  1.00  0.00     0.004 A 
ATOM     35  C22 03Q A   1      16.190  20.237  23.662  1.00  0.00     0.037 A 
BRANCH  32  36
ATOM     36  C27 03Q A   1      19.884  20.982  25.621  1.00  0.00     0.417 C 
ATOM     37  F28 03Q A   1      20.947  20.287  25.082  1.00  0.00    -0.166 F 
ATOM     38  F29 03Q A   1      19.738  20.663  26.968  1.00  0.00    -0.166 F 
ATOM     39  F30 03Q A   1      20.211  22.306  25.466  1.00  0.00    -0.166 F 
ENDBRANCH  32  36
ENDBRANCH  29  30
ENDBRANCH  24  29
ENDBRANCH   1  21
TORSDOF 11
ENDMDL
