REMARK  3 active torsions:
REMARK  status: ('A' for Active; 'I' for Inactive)
REMARK    1  A    between atoms: C_6  and  O_15 
REMARK    2  A    between atoms: C_26  and  N_12 
REMARK    3  A    between atoms: C_26  and  C_13 
ROOT
ATOM      1  C   UNL d   1      -2.261   0.980   0.850  0.00  0.00     0.386 A 
ATOM      2  C   UNL d   1      -1.529  -0.274   0.558  0.00  0.00     0.034 A 
ATOM      3  C   UNL d   1      -1.907  -1.076  -0.457  0.00  0.00     0.062 A 
ATOM      4  C   UNL d   1      -3.114  -0.749  -1.279  0.00  0.00     0.368 A 
ATOM      5  C   UNL d   1      -3.890   0.469  -0.968  0.00  0.00     0.032 A 
ATOM      6  C   UNL d   1      -3.502   1.274   0.059  0.00  0.00     0.284 A 
ATOM      7  C   UNL d   1      -0.295  -0.598   1.382  0.00  0.00     0.083 C 
ATOM      8  N   UNL d   1      -0.047  -2.043   1.453  0.00  0.00    -0.378 N 
ATOM      9  C   UNL d   1      -0.977  -2.771   2.309  0.00  0.00     0.144 C 
ATOM     10  C   UNL d   1       0.956   0.069   0.770  0.00  0.00     0.201 C 
ATOM     11  C   UNL d   1       1.351  -1.956  -0.533  0.00  0.00     0.127 C 
ATOM     12  N   UNL d   1       1.228  -0.511  -0.539  0.00  0.00    -0.387 N 
ATOM     13  C   UNL d   1      -5.097   0.783  -1.806  0.00  0.00     0.003 C 
ATOM     14  C   UNL d   1       2.551  -2.494   0.176  0.00  0.00     0.384 C 
ATOM     15  N   UNL d   1       3.508  -2.911   0.686  0.00  0.00    -0.493 NA
ATOM     16  C   UNL d   1      -1.181  -2.354  -0.780  0.00  0.00     0.007 C 
ATOM     17  C   UNL d   1       0.077  -2.585   0.097  0.00  0.00     0.157 C 
ATOM     18  O   UNL d   1      -1.843   1.760   1.704  0.00  0.00    -0.484 OA
ATOM     19  O   UNL d   1      -3.443  -1.507  -2.190  0.00  0.00    -0.480 OA
ENDROOT
BRANCH   6  20
ATOM     20  O   UNL d   1      -4.226   2.392   0.273  0.00  0.00    -0.502 OA
ATOM     21  C   UNL d   1      -4.191   3.143   1.497  0.00  0.00     0.303 C 
ENDBRANCH   6  20
BRANCH  12  22
ATOM     22  C   UNL d   1       2.075   0.274  -1.447  0.00  0.00     0.077 C 
BRANCH  22  23
ATOM     23  C   UNL d   1       3.354   0.876  -0.892  0.00  0.00     0.170 A 
ATOM     24  C   UNL d   1       3.489   2.224  -0.670  0.00  0.00    -0.228 A 
ATOM     25  S   UNL d   1       5.056   2.640  -0.059  0.00  0.00     0.256 SA
ATOM     26  C   UNL d   1       5.551   0.976  -0.098  0.00  0.00    -0.175 A 
ATOM     27  C   UNL d   1       4.556   0.163  -0.559  0.00  0.00     0.048 A 
ENDBRANCH  22  23
ENDBRANCH  12  22
TORSDOF 3
