REMARK  4 active torsions:
REMARK  status: ('A' for Active; 'I' for Inactive)
REMARK    1  A    between atoms: O_23  and  C_1 
REMARK    2  A    between atoms: O_15  and  C_6 
REMARK    3  A    between atoms: N_12  and  C_26 
REMARK    4  A    between atoms: C_26  and  C_13 
ROOT
ATOM      1  C   UNL d   1      -2.706   0.252  -0.776  0.00  0.00     0.266 A 
ATOM      2  C   UNL d   1      -1.712   0.932  -0.066  0.00  0.00     0.082 A 
ATOM      3  C   UNL d   1      -1.502   0.595   1.278  0.00  0.00     0.124 A 
ATOM      4  C   UNL d   1      -2.295  -0.385   1.886  0.00  0.00    -0.169 A 
ATOM      5  C   UNL d   1      -3.302  -1.064   1.189  0.00  0.00     0.170 A 
ATOM      6  C   UNL d   1      -3.484  -0.737  -0.158  0.00  0.00     0.222 A 
ATOM      7  C   UNL d   1      -0.843   1.967  -0.752  0.00  0.00     0.088 C 
ATOM      8  N   UNL d   1      -0.331   2.907   0.256  0.00  0.00    -0.389 N 
ATOM      9  C   UNL d   1       0.196   4.159  -0.277  0.00  0.00     0.148 C 
ATOM     10  C   UNL d   1       0.324   1.288  -1.515  0.00  0.00     0.168 C 
ATOM     11  C   UNL d   1       1.657   1.357   0.552  0.00  0.00     0.140 C 
ATOM     12  N   UNL d   1       1.256   0.588  -0.629  0.00  0.00    -0.399 N 
ATOM     13  C   UNL d   1      -4.166  -2.100   1.866  0.00  0.00    -0.045 C 
ATOM     14  C   UNL d   1       2.797   2.242   0.204  0.00  0.00     0.378 C 
ATOM     15  N   UNL d   1       3.692   2.931  -0.068  0.00  0.00    -0.499 NA
ATOM     16  C   UNL d   1      -0.445   1.329   2.081  0.00  0.00    -0.029 C 
ATOM     17  C   UNL d   1       0.501   2.193   1.221  0.00  0.00     0.139 C 
ENDROOT
BRANCH   1  18
ATOM     18  O   UNL d   1      -2.926   0.558  -2.090  0.00  0.00    -0.666 OA
ATOM     19  H   UNL d   1      -3.740   0.079  -2.337  0.00  0.00     0.421 HD
ENDBRANCH   1  18
BRANCH   6  20
ATOM     20  O   UNL d   1      -4.475  -1.312  -0.951  0.00  0.00    -0.552 OA
ATOM     21  C   UNL d   1      -4.143  -2.605  -1.473  0.00  0.00     0.257 C 
ENDBRANCH   6  20
BRANCH  12  22
ATOM     22  C   UNL d   1       1.102  -0.852  -0.436  0.00  0.00     0.103 C 
BRANCH  22  23
ATOM     23  C   UNL d   1       2.421  -1.567  -0.228  0.00  0.00     0.152 A 
ATOM     24  C   UNL d   1       3.640  -1.111  -0.657  0.00  0.00    -0.195 A 
ATOM     25  S   UNL d   1       4.918  -2.223  -0.286  0.00  0.00     0.257 SA
ATOM     26  C   UNL d   1       3.804  -3.326   0.456  0.00  0.00    -0.179 A 
ATOM     27  C   UNL d   1       2.526  -2.844   0.417  0.00  0.00     0.007 A 
ENDBRANCH  22  23
ENDBRANCH  12  22
TORSDOF 4
