REMARK  6 active torsions:
REMARK  status: ('A' for Active; 'I' for Inactive)
REMARK    1  A    between atoms: O_25  and  C_1 
REMARK    2  A    between atoms: O_15  and  C_6 
REMARK    3  A    between atoms: C_33  and  N_12 
REMARK    4  A    between atoms: C_13  and  C_33 
REMARK    5  A    between atoms: O_25  and  C_32 
REMARK    6  A    between atoms: C_26  and  C_32 
ROOT
ATOM      1  C   UNL d   1       1.418   1.047   0.595  0.00  0.00     0.285 A 
ATOM      2  C   UNL d   1       0.383   0.357   1.244  0.00  0.00     0.071 A 
ATOM      3  C   UNL d   1      -0.576   1.081   1.966  0.00  0.00     0.109 A 
ATOM      4  C   UNL d   1      -0.474   2.475   2.037  0.00  0.00    -0.150 A 
ATOM      5  C   UNL d   1       0.545   3.179   1.391  0.00  0.00     0.141 A 
ATOM      6  C   UNL d   1       1.494   2.447   0.658  0.00  0.00     0.248 A 
ATOM      7  C   UNL d   1       0.263  -1.150   1.114  0.00  0.00     0.085 C 
ATOM      8  N   UNL d   1      -0.457  -1.681   2.284  0.00  0.00    -0.404 N 
ATOM      9  C   UNL d   1      -0.327  -3.121   2.485  0.00  0.00     0.150 C 
ATOM     10  C   UNL d   1      -0.461  -1.538  -0.200  0.00  0.00     0.175 C 
ATOM     11  C   UNL d   1      -2.615  -1.353   0.984  0.00  0.00     0.156 C 
ATOM     12  N   UNL d   1      -1.859  -1.095  -0.243  0.00  0.00    -0.401 N 
ATOM     13  C   UNL d   1       0.640   4.684   1.468  0.00  0.00    -0.030 C 
ATOM     14  C   UNL d   1      -3.183  -2.725   0.932  0.00  0.00     0.393 C 
ATOM     15  N   UNL d   1      -3.638  -3.793   0.883  0.00  0.00    -0.546 NA
ATOM     16  C   UNL d   1      -1.692   0.358   2.697  0.00  0.00    -0.010 C 
ATOM     17  C   UNL d   1      -1.812  -1.133   2.322  0.00  0.00     0.152 C 
ENDROOT
BRANCH   1  18
ATOM     18  O   UNL d   1       2.331   0.321  -0.149  0.00  0.00    -0.566 OA
BRANCH  18  19
ATOM     19  C   UNL d   1       3.674   0.276   0.410  0.00  0.00     0.199 C 
BRANCH  19  20
ATOM     20  C   UNL d   1       4.514  -0.621  -0.460  0.00  0.00     0.132 A 
ATOM     21  C   UNL d   1       5.205  -0.100  -1.562  0.00  0.00    -0.035 A 
ATOM     22  C   UNL d   1       5.960  -0.935  -2.388  0.00  0.00     0.005 A 
ATOM     23  C   UNL d   1       6.032  -2.304  -2.118  0.00  0.00     0.009 A 
ATOM     24  C   UNL d   1       5.349  -2.833  -1.021  0.00  0.00     0.005 A 
ATOM     25  C   UNL d   1       4.594  -1.995  -0.198  0.00  0.00    -0.036 A 
ENDBRANCH  19  20
ENDBRANCH  18  19
ENDBRANCH   1  18
BRANCH   6  26
ATOM     26  O   UNL d   1       2.524   3.128   0.038  0.00  0.00    -0.541 OA
ATOM     27  C   UNL d   1       2.432   3.184  -1.394  0.00  0.00     0.267 C 
ENDBRANCH   6  26
BRANCH  12  28
ATOM     28  C   UNL d   1      -2.180   0.148  -0.943  0.00  0.00     0.164 C 
BRANCH  28  29
ATOM     29  C   UNL d   1      -3.543   0.088  -1.596  0.00  0.00    -0.151 A 
ATOM     30  C   UNL d   1      -4.182  -0.986  -2.159  0.00  0.00     0.031 A 
ATOM     31  C   UNL d   1      -5.447  -0.655  -2.739  0.00  0.00     0.041 A 
ATOM     32  C   UNL d   1      -5.761   0.669  -2.613  0.00  0.00    -0.164 A 
ATOM     33  S   UNL d   1      -4.511   1.536  -1.770  0.00  0.00     0.220 SA
ENDBRANCH  28  29
ENDBRANCH  12  28
TORSDOF 6
