REMARK  4 active torsions:
REMARK  status: ('A' for Active; 'I' for Inactive)
REMARK    1  A    between atoms: C_1  and  N_2 
REMARK    2  A    between atoms: C_1  and  C_3 
REMARK    3  A    between atoms: O_22  and  C_19 
REMARK    4  A    between atoms: O_24  and  C_21 
ROOT
ATOM      1  C   UNL d   1       1.275  -0.787  -0.716  0.00  0.00     0.150 C 
ENDROOT
BRANCH   1   2
ATOM      2  N   UNL d   1       1.391   0.671  -0.708  0.00  0.00    -0.394 N 
ATOM      3  C   UNL d   1       0.411   1.455  -1.463  0.00  0.00     0.170 C 
ATOM      4  C   UNL d   1      -0.746   1.990  -0.580  0.00  0.00     0.087 C 
ATOM      5  C   UNL d   1      -1.569   0.850  -0.013  0.00  0.00     0.080 A 
ATOM      6  N   UNL d   1      -0.226   2.801   0.531  0.00  0.00    -0.389 N 
ATOM      7  C   UNL d   1      -2.568   0.243  -0.779  0.00  0.00     0.265 A 
ATOM      8  C   UNL d   1      -1.305   0.340   1.266  0.00  0.00     0.123 A 
ATOM      9  C   UNL d   1      -3.315  -0.828  -0.270  0.00  0.00     0.221 A 
ATOM     10  C   UNL d   1      -3.047  -1.361   0.995  0.00  0.00     0.172 A 
ATOM     11  C   UNL d   1      -3.813  -2.550   1.522  0.00  0.00    -0.044 C 
ATOM     12  C   UNL d   1      -2.031  -0.756   1.745  0.00  0.00    -0.166 A 
ATOM     13  C   UNL d   1      -0.237   0.986   2.127  0.00  0.00    -0.029 C 
ATOM     14  C   UNL d   1       0.656   1.987   1.365  0.00  0.00     0.139 C 
ATOM     15  C   UNL d   1       1.809   1.283   0.556  0.00  0.00     0.142 C 
ATOM     16  C   UNL d   1       2.916   2.239   0.299  0.00  0.00     0.378 C 
ATOM     17  N   UNL d   1       3.783   2.986   0.102  0.00  0.00    -0.498 NA
ATOM     18  C   UNL d   1       0.256   4.126   0.158  0.00  0.00     0.147 C 
BRANCH   7  19
ATOM     19  O   UNL d   1      -2.814   0.691  -2.047  0.00  0.00    -0.666 OA
ATOM     20  H   UNL d   1      -3.466   0.068  -2.421  0.00  0.00     0.420 HD
ENDBRANCH   7  19
BRANCH   9  21
ATOM     21  O   UNL d   1      -4.273  -1.363  -1.130  0.00  0.00    -0.553 OA
ATOM     22  C   UNL d   1      -5.617  -0.951  -0.848  0.00  0.00     0.260 C 
ENDBRANCH   9  21
ENDBRANCH   1   2
BRANCH   1  23
ATOM     23  C   UNL d   1       2.619  -1.456  -0.544  0.00  0.00    -0.159 A 
ATOM     24  C   UNL d   1       3.852  -1.037  -0.970  0.00  0.00     0.048 A 
ATOM     25  C   UNL d   1       4.899  -1.960  -0.665  0.00  0.00     0.044 A 
ATOM     26  C   UNL d   1       4.454  -3.074  -0.012  0.00  0.00    -0.175 A 
ATOM     27  S   UNL d   1       2.739  -3.009   0.252  0.00  0.00     0.228 SA
ENDBRANCH   1  23
TORSDOF 4
