REMARK  3 active torsions:
REMARK  status: ('A' for Active; 'I' for Inactive)
REMARK    1  A    between atoms: C_6  and  O_15 
REMARK    2  A    between atoms: C_27  and  N_12 
REMARK    3  A    between atoms: C_27  and  C_13 
ROOT
ATOM      1  C   UNL d   1      -2.026   0.405   1.092  0.00  0.00     0.386 A 
ATOM      2  C   UNL d   1      -1.253  -0.752   0.582  0.00  0.00     0.044 A 
ATOM      3  C   UNL d   1      -1.523  -1.293  -0.624  0.00  0.00     0.037 A 
ATOM      4  C   UNL d   1      -2.650  -0.768  -1.457  0.00  0.00     0.368 A 
ATOM      5  C   UNL d   1      -3.479   0.338  -0.936  0.00  0.00     0.031 A 
ATOM      6  C   UNL d   1      -3.202   0.873   0.286  0.00  0.00     0.285 A 
ATOM      7  C   UNL d   1      -0.104  -1.261   1.420  0.00  0.00     0.096 C 
ATOM      8  N   UNL d   1       0.135  -2.670   1.080  0.00  0.00    -0.391 N 
ATOM      9  C   UNL d   1       0.945  -3.410   2.042  0.00  0.00     0.157 C 
ATOM     10  C   UNL d   1       1.173  -0.405   1.184  0.00  0.00     0.196 C 
ATOM     11  C   UNL d   1       1.734  -1.878  -0.720  0.00  0.00     0.132 C 
ATOM     12  N   UNL d   1       1.675  -0.525  -0.181  0.00  0.00    -0.390 N 
ATOM     13  C   UNL d   1      -4.614   0.844  -1.780  0.00  0.00     0.004 C 
ATOM     14  C   UNL d   1       3.006  -2.535  -0.315  0.00  0.00     0.377 C 
ATOM     15  N   UNL d   1       3.999  -3.053  -0.007  0.00  0.00    -0.486 NA
ATOM     16  C   UNL d   1      -0.743  -2.456  -1.170  0.00  0.00     0.027 C 
ATOM     17  C   UNL d   1       0.507  -2.784  -0.330  0.00  0.00     0.144 C 
ATOM     18  O   UNL d   1      -1.696   0.968   2.134  0.00  0.00    -0.484 OA
ATOM     19  O   UNL d   1      -2.872  -1.277  -2.555  0.00  0.00    -0.480 OA
ENDROOT
BRANCH   6  20
ATOM     20  O   UNL d   1      -3.969   1.905   0.694  0.00  0.00    -0.502 OA
ATOM     21  C   UNL d   1      -4.060   2.336   2.061  0.00  0.00     0.304 C 
ENDBRANCH   6  20
BRANCH  12  22
ATOM     22  C   UNL d   1       1.458   0.596  -1.093  0.00  0.00     0.121 C 
BRANCH  22  23
ATOM     23  C   UNL d   1       2.213   1.834  -0.687  0.00  0.00    -0.119 A 
ATOM     24  C   UNL d   1       1.755   3.125  -0.651  0.00  0.00     0.008 A 
ATOM     25  C   UNL d   1       2.759   4.074  -0.284  0.00  0.00     0.045 A 
ATOM     26  C   UNL d   1       3.968   3.486  -0.039  0.00  0.00    -0.173 A 
ATOM     27  S   UNL d   1       3.904   1.763  -0.249  0.00  0.00     0.262 SA
ENDBRANCH  22  23
ENDBRANCH  12  22
TORSDOF 3
